<?xml version="1.0" encoding="UTF-8"?>

<!-- generated on 2024-12-05 19:24:33 by Eclipse SUMO netedit Version 1.20.0
<configuration xmlns:xsi="http://www.w3.org/2001/XMLSchema-instance" xsi:noNamespaceSchemaLocation="http://sumo.dlr.de/xsd/neteditConfiguration.xsd">

    <input>
        <sumo-net-file value="C:\Users\josep\OneDrive\Documentos\EFísica\CPIA\PROJECT\RL_traffic\2-Intersections\intersection\environment2.net.xml"/>
    </input>

    <output>
        <output-file value="C:\Users\josep\OneDrive\Documentos\EFísica\CPIA\PROJECT\RL_traffic\2-Intersections\intersection\environment2.net.xml"/>
    </output>

    <processing>
        <geometry.min-radius.fix.railways value="false"/>
        <geometry.max-grade.fix value="false"/>
        <offset.disable-normalization value="true"/>
        <lefthand value="0"/>
    </processing>

    <junctions>
        <no-turnarounds value="true"/>
        <junctions.corner-detail value="5"/>
        <junctions.limit-turn-speed value="5.50"/>
        <rectangular-lane-cut value="0"/>
    </junctions>

    <pedestrian>
        <walkingareas value="0"/>
    </pedestrian>

</configuration>
-->

<net version="1.20" junctionCornerDetail="5" limitTurnSpeed="5.50" xmlns:xsi="http://www.w3.org/2001/XMLSchema-instance" xsi:noNamespaceSchemaLocation="http://sumo.dlr.de/xsd/net_file.xsd">

    <location netOffset="0.00,0.00" convBoundary="-750.00,-750.00,1500.78,750.00" origBoundary="-10000000000.00,-10000000000.00,10000000000.00,10000000000.00" projParameter="!"/>

    <edge id=":DE_0" function="internal">
        <lane id=":DE_0_0" index="0" speed="6.53" length="9.09" shape="738.83,16.85 738.47,14.38 737.42,12.61 735.66,11.55 733.20,11.20"/>
    </edge>
    <edge id=":DE_1" function="internal">
        <lane id=":DE_1_0" index="0" speed="13.89" length="33.65" shape="738.83,16.85 738.80,-16.80"/>
        <lane id=":DE_1_1" index="1" speed="13.89" length="33.65" shape="742.03,16.85 742.00,-16.80"/>
        <lane id=":DE_1_2" index="2" speed="13.89" length="33.65" shape="745.23,16.84 745.20,-16.80"/>
    </edge>
    <edge id=":DE_4" function="internal">
        <lane id=":DE_4_0" index="0" speed="11.36" length="29.71" shape="748.43,16.83 749.57,8.77 753.01,3.01 758.77,-0.44 766.83,-1.59"/>
    </edge>
    <edge id=":DE_5" function="internal">
        <lane id=":DE_5_0" index="0" speed="6.50" length="9.03" shape="766.82,11.21 764.37,11.56 762.62,12.61 761.58,14.36 761.23,16.81"/>
    </edge>
    <edge id=":DE_6" function="internal">
        <lane id=":DE_6_0" index="0" speed="13.89" length="33.63" shape="766.82,11.21 733.20,11.20"/>
        <lane id=":DE_6_1" index="1" speed="13.89" length="33.63" shape="766.83,8.01 733.20,8.00"/>
        <lane id=":DE_6_2" index="2" speed="13.89" length="33.63" shape="766.83,4.81 733.20,4.80"/>
    </edge>
    <edge id=":DE_9" function="internal">
        <lane id=":DE_9_0" index="0" speed="11.37" length="29.70" shape="766.83,1.61 758.77,0.46 753.01,-3.00 749.55,-8.75 748.40,-16.80"/>
    </edge>
    <edge id=":DE_10" function="internal">
        <lane id=":DE_10_0" index="0" speed="6.52" length="9.07" shape="761.20,-16.80 761.55,-14.35 762.61,-12.59 764.37,-11.54 766.84,-11.19"/>
    </edge>
    <edge id=":DE_11" function="internal">
        <lane id=":DE_11_0" index="0" speed="13.89" length="33.62" shape="761.20,-16.80 761.23,16.81"/>
        <lane id=":DE_11_1" index="1" speed="13.89" length="33.62" shape="758.00,-16.80 758.03,16.82"/>
        <lane id=":DE_11_2" index="2" speed="13.89" length="33.62" shape="754.80,-16.80 754.83,16.82"/>
    </edge>
    <edge id=":DE_14" function="internal">
        <lane id=":DE_14_0" index="0" speed="11.36" length="29.67" shape="751.60,-16.80 750.45,-8.75 747.00,-3.00 741.25,0.45 733.20,1.60"/>
    </edge>
    <edge id=":DE_15" function="internal">
        <lane id=":DE_15_0" index="0" speed="6.51" length="9.03" shape="733.20,-11.20 735.65,-11.55 737.40,-12.60 738.45,-14.35 738.80,-16.80"/>
    </edge>
    <edge id=":DE_16" function="internal">
        <lane id=":DE_16_0" index="0" speed="13.89" length="33.64" shape="733.20,-11.20 766.84,-11.19"/>
        <lane id=":DE_16_1" index="1" speed="13.89" length="33.64" shape="733.20,-8.00 766.84,-7.99"/>
        <lane id=":DE_16_2" index="2" speed="13.89" length="33.64" shape="733.20,-4.80 766.84,-4.79"/>
    </edge>
    <edge id=":DE_19" function="internal">
        <lane id=":DE_19_0" index="0" speed="11.38" length="29.71" shape="733.20,-1.60 741.25,-0.45 747.01,3.01 750.47,8.77 751.63,16.83"/>
    </edge>
    <edge id=":TL_0" function="internal">
        <lane id=":TL_0_0" index="0" speed="6.51" length="9.03" shape="-11.20,16.80 -11.55,14.35 -12.60,12.60 -14.35,11.55 -16.80,11.20"/>
    </edge>
    <edge id=":TL_1" function="internal">
        <lane id=":TL_1_0" index="0" speed="13.89" length="33.60" shape="-11.20,16.80 -11.20,-16.80"/>
        <lane id=":TL_1_1" index="1" speed="13.89" length="33.60" shape="-8.00,16.80 -8.00,-16.80"/>
        <lane id=":TL_1_2" index="2" speed="13.89" length="33.60" shape="-4.80,16.80 -4.80,-16.80"/>
    </edge>
    <edge id=":TL_4" function="internal">
        <lane id=":TL_4_0" index="0" speed="11.36" length="29.67" shape="-1.60,16.80 -0.45,8.75 3.00,3.00 8.75,-0.45 16.80,-1.60"/>
    </edge>
    <edge id=":TL_5" function="internal">
        <lane id=":TL_5_0" index="0" speed="6.51" length="9.03" shape="16.80,11.20 14.35,11.55 12.60,12.60 11.55,14.35 11.20,16.80"/>
    </edge>
    <edge id=":TL_6" function="internal">
        <lane id=":TL_6_0" index="0" speed="13.89" length="33.60" shape="16.80,11.20 -16.80,11.20"/>
        <lane id=":TL_6_1" index="1" speed="13.89" length="33.60" shape="16.80,8.00 -16.80,8.00"/>
        <lane id=":TL_6_2" index="2" speed="13.89" length="33.60" shape="16.80,4.80 -16.80,4.80"/>
    </edge>
    <edge id=":TL_9" function="internal">
        <lane id=":TL_9_0" index="0" speed="11.36" length="29.67" shape="16.80,1.60 8.75,0.45 3.00,-3.00 -0.45,-8.75 -1.60,-16.80"/>
    </edge>
    <edge id=":TL_10" function="internal">
        <lane id=":TL_10_0" index="0" speed="6.51" length="9.03" shape="11.20,-16.80 11.55,-14.35 12.60,-12.60 14.35,-11.55 16.80,-11.20"/>
    </edge>
    <edge id=":TL_11" function="internal">
        <lane id=":TL_11_0" index="0" speed="13.89" length="33.60" shape="11.20,-16.80 11.20,16.80"/>
        <lane id=":TL_11_1" index="1" speed="13.89" length="33.60" shape="8.00,-16.80 8.00,16.80"/>
        <lane id=":TL_11_2" index="2" speed="13.89" length="33.60" shape="4.80,-16.80 4.80,16.80"/>
    </edge>
    <edge id=":TL_14" function="internal">
        <lane id=":TL_14_0" index="0" speed="11.36" length="29.67" shape="1.60,-16.80 0.45,-8.75 -3.00,-3.00 -8.75,0.45 -16.80,1.60"/>
    </edge>
    <edge id=":TL_15" function="internal">
        <lane id=":TL_15_0" index="0" speed="6.51" length="9.03" shape="-16.80,-11.20 -14.35,-11.55 -12.60,-12.60 -11.55,-14.35 -11.20,-16.80"/>
    </edge>
    <edge id=":TL_16" function="internal">
        <lane id=":TL_16_0" index="0" speed="13.89" length="33.60" shape="-16.80,-11.20 16.80,-11.20"/>
        <lane id=":TL_16_1" index="1" speed="13.89" length="33.60" shape="-16.80,-8.00 16.80,-8.00"/>
        <lane id=":TL_16_2" index="2" speed="13.89" length="33.60" shape="-16.80,-4.80 16.80,-4.80"/>
    </edge>
    <edge id=":TL_19" function="internal">
        <lane id=":TL_19_0" index="0" speed="11.36" length="29.67" shape="-16.80,-1.60 -8.75,-0.45 -3.00,3.00 0.45,8.75 1.60,16.80"/>
    </edge>

    <edge id="-E0" from="J1" to="DE" priority="-1">
        <lane id="-E0_0" index="0" speed="13.89" length="733.95" shape="1500.77,11.71 766.82,11.21"/>
        <lane id="-E0_1" index="1" speed="13.89" length="733.95" shape="1500.77,8.51 766.83,8.01"/>
        <lane id="-E0_2" index="2" speed="13.89" length="733.95" shape="1500.78,5.31 766.83,4.81"/>
        <lane id="-E0_3" index="3" speed="13.89" length="733.95" shape="1500.78,2.11 766.83,1.61"/>
    </edge>
    <edge id="-E3" from="J6" to="DE" priority="-1">
        <lane id="-E3_0" index="0" speed="13.89" length="731.80" shape="740.15,748.65 738.83,16.85"/>
        <lane id="-E3_1" index="1" speed="13.89" length="731.80" shape="743.35,748.64 742.03,16.85"/>
        <lane id="-E3_2" index="2" speed="13.89" length="731.80" shape="746.55,748.64 745.23,16.84"/>
        <lane id="-E3_3" index="3" speed="13.89" length="731.80" shape="749.75,748.63 748.43,16.83"/>
    </edge>
    <edge id="-E4" from="J7" to="DE" priority="-1">
        <lane id="-E4_0" index="0" speed="13.89" length="733.20" shape="761.20,-750.00 761.20,-16.80"/>
        <lane id="-E4_1" index="1" speed="13.89" length="733.20" shape="758.00,-750.00 758.00,-16.80"/>
        <lane id="-E4_2" index="2" speed="13.89" length="733.20" shape="754.80,-750.00 754.80,-16.80"/>
        <lane id="-E4_3" index="3" speed="13.89" length="733.20" shape="751.60,-750.00 751.60,-16.80"/>
    </edge>
    <edge id="E0" from="DE" to="J1" priority="-1">
        <lane id="E0_0" index="0" speed="13.89" length="733.95" shape="766.84,-11.19 1500.79,-10.69"/>
        <lane id="E0_1" index="1" speed="13.89" length="733.95" shape="766.84,-7.99 1500.79,-7.49"/>
        <lane id="E0_2" index="2" speed="13.89" length="733.95" shape="766.84,-4.79 1500.78,-4.29"/>
        <lane id="E0_3" index="3" speed="13.89" length="733.95" shape="766.83,-1.59 1500.78,-1.09"/>
    </edge>
    <edge id="E2TL" from="DE" to="TL" priority="-1" length="750.00">
        <lane id="E2TL_0" index="0" speed="13.89" length="750.00" shape="733.20,11.20 16.80,11.20"/>
        <lane id="E2TL_1" index="1" speed="13.89" length="750.00" shape="733.20,8.00 16.80,8.00"/>
        <lane id="E2TL_2" index="2" speed="13.89" length="750.00" shape="733.20,4.80 16.80,4.80"/>
        <lane id="E2TL_3" index="3" speed="13.89" length="750.00" shape="733.20,1.60 16.80,1.60"/>
    </edge>
    <edge id="E3" from="DE" to="J6" priority="-1" shape="750.00,0.00 751.34,744.84 751.35,748.63">
        <lane id="E3_0" index="0" speed="13.89" length="731.79" shape="761.23,16.81 762.54,744.82 762.55,748.60"/>
        <lane id="E3_1" index="1" speed="13.89" length="731.79" shape="758.03,16.82 759.34,744.83 759.35,748.61"/>
        <lane id="E3_2" index="2" speed="13.89" length="731.79" shape="754.83,16.82 756.14,744.83 756.15,748.62"/>
        <lane id="E3_3" index="3" speed="13.89" length="731.79" shape="751.63,16.83 752.94,744.84 752.95,748.63"/>
    </edge>
    <edge id="E4" from="DE" to="J7" priority="-1">
        <lane id="E4_0" index="0" speed="13.89" length="733.20" shape="738.80,-16.80 738.80,-750.00"/>
        <lane id="E4_1" index="1" speed="13.89" length="733.20" shape="742.00,-16.80 742.00,-750.00"/>
        <lane id="E4_2" index="2" speed="13.89" length="733.20" shape="745.20,-16.80 745.20,-750.00"/>
        <lane id="E4_3" index="3" speed="13.89" length="733.20" shape="748.40,-16.80 748.40,-750.00"/>
    </edge>
    <edge id="N2TL" from="DN" to="TL" priority="-1" length="750.00">
        <lane id="N2TL_0" index="0" speed="13.89" length="750.00" shape="-11.20,750.00 -11.20,16.80"/>
        <lane id="N2TL_1" index="1" speed="13.89" length="750.00" shape="-8.00,750.00 -8.00,16.80"/>
        <lane id="N2TL_2" index="2" speed="13.89" length="750.00" shape="-4.80,750.00 -4.80,16.80"/>
        <lane id="N2TL_3" index="3" speed="13.89" length="750.00" shape="-1.60,750.00 -1.60,16.80"/>
    </edge>
    <edge id="S2TL" from="DS" to="TL" priority="-1" length="750.00">
        <lane id="S2TL_0" index="0" speed="13.89" length="750.00" shape="11.20,-750.00 11.20,-16.80"/>
        <lane id="S2TL_1" index="1" speed="13.89" length="750.00" shape="8.00,-750.00 8.00,-16.80"/>
        <lane id="S2TL_2" index="2" speed="13.89" length="750.00" shape="4.80,-750.00 4.80,-16.80"/>
        <lane id="S2TL_3" index="3" speed="13.89" length="750.00" shape="1.60,-750.00 1.60,-16.80"/>
    </edge>
    <edge id="TL2E" from="TL" to="DE" priority="-1" length="750.00">
        <lane id="TL2E_0" index="0" speed="13.89" length="750.00" shape="16.80,-11.20 733.20,-11.20"/>
        <lane id="TL2E_1" index="1" speed="13.89" length="750.00" shape="16.80,-8.00 733.20,-8.00"/>
        <lane id="TL2E_2" index="2" speed="13.89" length="750.00" shape="16.80,-4.80 733.20,-4.80"/>
        <lane id="TL2E_3" index="3" speed="13.89" length="750.00" shape="16.80,-1.60 733.20,-1.60"/>
    </edge>
    <edge id="TL2N" from="TL" to="DN" priority="-1" length="750.00">
        <lane id="TL2N_0" index="0" speed="13.89" length="750.00" shape="11.20,16.80 11.20,750.00"/>
        <lane id="TL2N_1" index="1" speed="13.89" length="750.00" shape="8.00,16.80 8.00,750.00"/>
        <lane id="TL2N_2" index="2" speed="13.89" length="750.00" shape="4.80,16.80 4.80,750.00"/>
        <lane id="TL2N_3" index="3" speed="13.89" length="750.00" shape="1.60,16.80 1.60,750.00"/>
    </edge>
    <edge id="TL2S" from="TL" to="DS" priority="-1" length="750.00">
        <lane id="TL2S_0" index="0" speed="13.89" length="750.00" shape="-11.20,-16.80 -11.20,-750.00"/>
        <lane id="TL2S_1" index="1" speed="13.89" length="750.00" shape="-8.00,-16.80 -8.00,-750.00"/>
        <lane id="TL2S_2" index="2" speed="13.89" length="750.00" shape="-4.80,-16.80 -4.80,-750.00"/>
        <lane id="TL2S_3" index="3" speed="13.89" length="750.00" shape="-1.60,-16.80 -1.60,-750.00"/>
    </edge>
    <edge id="TL2W" from="TL" to="DW" priority="-1" length="750.00">
        <lane id="TL2W_0" index="0" speed="13.89" length="750.00" shape="-16.80,11.20 -750.00,11.20"/>
        <lane id="TL2W_1" index="1" speed="13.89" length="750.00" shape="-16.80,8.00 -750.00,8.00"/>
        <lane id="TL2W_2" index="2" speed="13.89" length="750.00" shape="-16.80,4.80 -750.00,4.80"/>
        <lane id="TL2W_3" index="3" speed="13.89" length="750.00" shape="-16.80,1.60 -750.00,1.60"/>
    </edge>
    <edge id="W2TL" from="DW" to="TL" priority="-1" length="750.00">
        <lane id="W2TL_0" index="0" speed="13.89" length="750.00" shape="-750.00,-11.20 -16.80,-11.20"/>
        <lane id="W2TL_1" index="1" speed="13.89" length="750.00" shape="-750.00,-8.00 -16.80,-8.00"/>
        <lane id="W2TL_2" index="2" speed="13.89" length="750.00" shape="-750.00,-4.80 -16.80,-4.80"/>
        <lane id="W2TL_3" index="3" speed="13.89" length="750.00" shape="-750.00,-1.60 -16.80,-1.60"/>
    </edge>

     <tlLogic id="DE" type="static" programID="0" offset="0">
        <phase duration="100" state="GGGGrrrrrrGGGGrrrrrr"/>
        <phase duration="100" state="yyyyrrrrrryyyyrrrrrr"/>
        <phase duration="100" state="rrrrGrrrrrrrrrGrrrrr"/>
        <phase duration="100" state="rrrryrrrrrrrrryrrrrr"/>
        <phase duration="100" state="rrrrrGGGGrrrrrrGGGGr"/>
        <phase duration="100" state="rrrrryyyyrrrrrryyyyr"/>
        <phase duration="100" state="rrrrrrrrrGrrrrrrrrrG"/>
        <phase duration="100" state="rrrrrrrrryrrrrrrrrry"/>
    </tlLogic>

    <tlLogic id="TL" type="static" programID="0" offset="0">
        <phase duration="100" state="GGGGrrrrrrGGGGrrrrrr"/>
        <phase duration="100" state="yyyyrrrrrryyyyrrrrrr"/>
        <phase duration="100" state="rrrrGrrrrrrrrrGrrrrr"/>
        <phase duration="100" state="rrrryrrrrrrrrryrrrrr"/>
        <phase duration="100" state="rrrrrGGGGrrrrrrGGGGr"/>
        <phase duration="100" state="rrrrryyyyrrrrrryyyyr"/>
        <phase duration="100" state="rrrrrrrrrGrrrrrrrrrG"/>
        <phase duration="100" state="rrrrrrrrryrrrrrrrrry"/>
    </tlLogic>

    <junction id="DE" type="traffic_light" x="750.00" y="0.00" incLanes="-E3_0 -E3_1 -E3_2 -E3_3 -E0_0 -E0_1 -E0_2 -E0_3 -E4_0 -E4_1 -E4_2 -E4_3 TL2E_0 TL2E_1 TL2E_2 TL2E_3" intLanes=":DE_0_0 :DE_1_0 :DE_1_1 :DE_1_2 :DE_4_0 :DE_5_0 :DE_6_0 :DE_6_1 :DE_6_2 :DE_9_0 :DE_10_0 :DE_11_0 :DE_11_1 :DE_11_2 :DE_14_0 :DE_15_0 :DE_16_0 :DE_16_1 :DE_16_2 :DE_19_0" shape="737.23,16.85 762.83,16.81 763.27,14.59 763.82,13.81 764.60,13.25 765.60,12.92 766.82,12.81 766.84,-12.79 764.60,-13.24 763.81,-13.79 763.25,-14.57 762.91,-15.58 762.80,-16.80 737.20,-16.80 736.76,-14.58 736.20,-13.80 735.42,-13.24 734.42,-12.91 733.20,-12.80 733.20,12.80 735.44,13.25 736.22,13.81 736.78,14.60 737.12,15.62">
        <request index="0"  response="00000000000111000000" foes="00000000000111000000" cont="0"/>
        <request index="1"  response="11111000000111000000" foes="11111100000111000000" cont="0"/>
        <request index="2"  response="11111000000111000000" foes="11111100000111000000" cont="0"/>
        <request index="3"  response="11111000000111000000" foes="11111100000111000000" cont="0"/>
        <request index="4"  response="10000011101111000000" foes="10000011101111000000" cont="0"/>
        <request index="5"  response="00000000000000000000" foes="00000011100000000000" cont="0"/>
        <request index="6"  response="00000000000000000000" foes="10000011100000011111" cont="0"/>
        <request index="7"  response="00000000000000000000" foes="10000011100000011111" cont="0"/>
        <request index="8"  response="00000000000000000000" foes="10000011100000011111" cont="0"/>
        <request index="9"  response="01110000000000000000" foes="01110111100000010000" cont="0"/>
        <request index="10" response="01110000000000000000" foes="01110000000000000000" cont="0"/>
        <request index="11" response="01110000001111100000" foes="01110000001111110000" cont="0"/>
        <request index="12" response="01110000001111100000" foes="01110000001111110000" cont="0"/>
        <request index="13" response="01110000001111100000" foes="01110000001111110000" cont="0"/>
        <request index="14" response="11110000001000001110" foes="11110000001000001110" cont="0"/>
        <request index="15" response="00000000000000000000" foes="00000000000000001110" cont="0"/>
        <request index="16" response="00000000000000000000" foes="00000111111000001110" cont="0"/>
        <request index="17" response="00000000000000000000" foes="00000111111000001110" cont="0"/>
        <request index="18" response="00000000000000000000" foes="00000111111000001110" cont="0"/>
        <request index="19" response="00000000000111000000" foes="00000100000111011110" cont="0"/>
    </junction>
    <junction id="DN" type="dead_end" x="0.00" y="750.00" incLanes="TL2N_0 TL2N_1 TL2N_2 TL2N_3" intLanes="" shape="0.00,750.00 12.80,750.00 0.00,750.00"/>
    <junction id="DS" type="dead_end" x="0.00" y="-750.00" incLanes="TL2S_0 TL2S_1 TL2S_2 TL2S_3" intLanes="" shape="0.00,-750.00 -12.80,-750.00 0.00,-750.00"/>
    <junction id="DW" type="dead_end" x="-750.00" y="0.00" incLanes="TL2W_0 TL2W_1 TL2W_2 TL2W_3" intLanes="" shape="-750.00,0.00 -750.00,12.80 -750.00,0.00"/>
    <junction id="J1" type="dead_end" x="1500.78" y="0.51" incLanes="E0_0 E0_1 E0_2 E0_3" intLanes="" shape="1500.78,0.51 1500.79,-12.29 1500.78,0.51"/>
    <junction id="J6" type="dead_end" x="751.35" y="748.63" incLanes="E3_0 E3_1 E3_2 E3_3" intLanes="" shape="751.35,748.63 738.55,748.65 764.15,748.60"/>
    <junction id="J7" type="dead_end" x="750.00" y="-750.00" incLanes="E4_0 E4_1 E4_2 E4_3" intLanes="" shape="750.00,-750.00 737.20,-750.00 750.00,-750.00"/>
    <junction id="TL" type="traffic_light" x="0.00" y="0.00" incLanes="N2TL_0 N2TL_1 N2TL_2 N2TL_3 E2TL_0 E2TL_1 E2TL_2 E2TL_3 S2TL_0 S2TL_1 S2TL_2 S2TL_3 W2TL_0 W2TL_1 W2TL_2 W2TL_3" intLanes=":TL_0_0 :TL_1_0 :TL_1_1 :TL_1_2 :TL_4_0 :TL_5_0 :TL_6_0 :TL_6_1 :TL_6_2 :TL_9_0 :TL_10_0 :TL_11_0 :TL_11_1 :TL_11_2 :TL_14_0 :TL_15_0 :TL_16_0 :TL_16_1 :TL_16_2 :TL_19_0" shape="-12.80,16.80 12.80,16.80 13.24,14.58 13.80,13.80 14.58,13.24 15.58,12.91 16.80,12.80 16.80,-12.80 14.58,-13.24 13.80,-13.80 13.24,-14.58 12.91,-15.58 12.80,-16.80 -12.80,-16.80 -13.24,-14.58 -13.80,-13.80 -14.58,-13.24 -15.58,-12.91 -16.80,-12.80 -16.80,12.80 -14.58,13.24 -13.80,13.80 -13.24,14.58 -12.91,15.58">
        <request index="0"  response="00000000000000000000" foes="00000000000111000000" cont="0"/>
        <request index="1"  response="00000000000000000000" foes="11111100000111000000" cont="0"/>
        <request index="2"  response="00000000000000000000" foes="11111100000111000000" cont="0"/>
        <request index="3"  response="00000000000000000000" foes="11111100000111000000" cont="0"/>
        <request index="4"  response="00000011100000000000" foes="10000011101111000000" cont="0"/>
        <request index="5"  response="00000011100000000000" foes="00000011100000000000" cont="0"/>
        <request index="6"  response="00000011100000011111" foes="10000011100000011111" cont="0"/>
        <request index="7"  response="00000011100000011111" foes="10000011100000011111" cont="0"/>
        <request index="8"  response="00000011100000011111" foes="10000011100000011111" cont="0"/>
        <request index="9"  response="01110111100000010000" foes="01110111100000010000" cont="0"/>
        <request index="10" response="00000000000000000000" foes="01110000000000000000" cont="0"/>
        <request index="11" response="00000000000000000000" foes="01110000001111110000" cont="0"/>
        <request index="12" response="00000000000000000000" foes="01110000001111110000" cont="0"/>
        <request index="13" response="00000000000000000000" foes="01110000001111110000" cont="0"/>
        <request index="14" response="00000000000000001110" foes="11110000001000001110" cont="0"/>
        <request index="15" response="00000000000000001110" foes="00000000000000001110" cont="0"/>
        <request index="16" response="00000111110000001110" foes="00000111111000001110" cont="0"/>
        <request index="17" response="00000111110000001110" foes="00000111111000001110" cont="0"/>
        <request index="18" response="00000111110000001110" foes="00000111111000001110" cont="0"/>
        <request index="19" response="00000100000111011110" foes="00000100000111011110" cont="0"/>
    </junction>

    <connection from="-E0" to="E3" fromLane="0" toLane="0" via=":DE_5_0" tl="DE" linkIndex="5" dir="r" state="O"/>
    <connection from="-E0" to="E2TL" fromLane="0" toLane="0" via=":DE_6_0" tl="DE" linkIndex="6" dir="s" state="O"/>
    <connection from="-E0" to="E2TL" fromLane="1" toLane="1" via=":DE_6_1" tl="DE" linkIndex="7" dir="s" state="O"/>
    <connection from="-E0" to="E2TL" fromLane="2" toLane="2" via=":DE_6_2" tl="DE" linkIndex="8" dir="s" state="O"/>
    <connection from="-E0" to="E4" fromLane="3" toLane="3" via=":DE_9_0" tl="DE" linkIndex="9" dir="l" state="o"/>
    <connection from="-E3" to="E2TL" fromLane="0" toLane="0" via=":DE_0_0" tl="DE" linkIndex="0" dir="r" state="o"/>
    <connection from="-E3" to="E4" fromLane="0" toLane="0" via=":DE_1_0" tl="DE" linkIndex="1" dir="s" state="o"/>
    <connection from="-E3" to="E4" fromLane="1" toLane="1" via=":DE_1_1" tl="DE" linkIndex="2" dir="s" state="o"/>
    <connection from="-E3" to="E4" fromLane="2" toLane="2" via=":DE_1_2" tl="DE" linkIndex="3" dir="s" state="o"/>
    <connection from="-E3" to="E0" fromLane="3" toLane="3" via=":DE_4_0" tl="DE" linkIndex="4" dir="l" state="o"/>
    <connection from="-E4" to="E0" fromLane="0" toLane="0" via=":DE_10_0" tl="DE" linkIndex="10" dir="r" state="o"/>
    <connection from="-E4" to="E3" fromLane="0" toLane="0" via=":DE_11_0" tl="DE" linkIndex="11" dir="s" state="o"/>
    <connection from="-E4" to="E3" fromLane="1" toLane="1" via=":DE_11_1" tl="DE" linkIndex="12" dir="s" state="o"/>
    <connection from="-E4" to="E3" fromLane="2" toLane="2" via=":DE_11_2" tl="DE" linkIndex="13" dir="s" state="o"/>
    <connection from="-E4" to="E2TL" fromLane="3" toLane="3" via=":DE_14_0" tl="DE" linkIndex="14" dir="l" state="o"/>
    <connection from="E2TL" to="TL2N" fromLane="0" toLane="0" via=":TL_5_0" tl="TL" linkIndex="5" dir="r" state="o"/>
    <connection from="E2TL" to="TL2W" fromLane="0" toLane="0" via=":TL_6_0" tl="TL" linkIndex="6" dir="s" state="o"/>
    <connection from="E2TL" to="TL2W" fromLane="1" toLane="1" via=":TL_6_1" tl="TL" linkIndex="7" dir="s" state="o"/>
    <connection from="E2TL" to="TL2W" fromLane="2" toLane="2" via=":TL_6_2" tl="TL" linkIndex="8" dir="s" state="o"/>
    <connection from="E2TL" to="TL2S" fromLane="3" toLane="3" via=":TL_9_0" tl="TL" linkIndex="9" dir="l" state="o"/>
    <connection from="N2TL" to="TL2W" fromLane="0" toLane="0" via=":TL_0_0" tl="TL" linkIndex="0" dir="r" state="O"/>
    <connection from="N2TL" to="TL2S" fromLane="0" toLane="0" via=":TL_1_0" tl="TL" linkIndex="1" dir="s" state="O"/>
    <connection from="N2TL" to="TL2S" fromLane="1" toLane="1" via=":TL_1_1" tl="TL" linkIndex="2" dir="s" state="O"/>
    <connection from="N2TL" to="TL2S" fromLane="2" toLane="2" via=":TL_1_2" tl="TL" linkIndex="3" dir="s" state="O"/>
    <connection from="N2TL" to="TL2E" fromLane="3" toLane="3" via=":TL_4_0" tl="TL" linkIndex="4" dir="l" state="o"/>
    <connection from="S2TL" to="TL2E" fromLane="0" toLane="0" via=":TL_10_0" tl="TL" linkIndex="10" dir="r" state="O"/>
    <connection from="S2TL" to="TL2N" fromLane="0" toLane="0" via=":TL_11_0" tl="TL" linkIndex="11" dir="s" state="O"/>
    <connection from="S2TL" to="TL2N" fromLane="1" toLane="1" via=":TL_11_1" tl="TL" linkIndex="12" dir="s" state="O"/>
    <connection from="S2TL" to="TL2N" fromLane="2" toLane="2" via=":TL_11_2" tl="TL" linkIndex="13" dir="s" state="O"/>
    <connection from="S2TL" to="TL2W" fromLane="3" toLane="3" via=":TL_14_0" tl="TL" linkIndex="14" dir="l" state="o"/>
    <connection from="TL2E" to="E4" fromLane="0" toLane="0" via=":DE_15_0" tl="DE" linkIndex="15" dir="r" state="O"/>
    <connection from="TL2E" to="E0" fromLane="0" toLane="0" via=":DE_16_0" tl="DE" linkIndex="16" dir="s" state="O"/>
    <connection from="TL2E" to="E0" fromLane="1" toLane="1" via=":DE_16_1" tl="DE" linkIndex="17" dir="s" state="O"/>
    <connection from="TL2E" to="E0" fromLane="2" toLane="2" via=":DE_16_2" tl="DE" linkIndex="18" dir="s" state="O"/>
    <connection from="TL2E" to="E3" fromLane="3" toLane="3" via=":DE_19_0" tl="DE" linkIndex="19" dir="l" state="o"/>
    <connection from="W2TL" to="TL2S" fromLane="0" toLane="0" via=":TL_15_0" tl="TL" linkIndex="15" dir="r" state="o"/>
    <connection from="W2TL" to="TL2E" fromLane="0" toLane="0" via=":TL_16_0" tl="TL" linkIndex="16" dir="s" state="o"/>
    <connection from="W2TL" to="TL2E" fromLane="1" toLane="1" via=":TL_16_1" tl="TL" linkIndex="17" dir="s" state="o"/>
    <connection from="W2TL" to="TL2E" fromLane="2" toLane="2" via=":TL_16_2" tl="TL" linkIndex="18" dir="s" state="o"/>
    <connection from="W2TL" to="TL2N" fromLane="3" toLane="3" via=":TL_19_0" tl="TL" linkIndex="19" dir="l" state="o"/>

    <connection from=":DE_0" to="E2TL" fromLane="0" toLane="0" dir="r" state="M"/>
    <connection from=":DE_1" to="E4" fromLane="0" toLane="0" dir="s" state="M"/>
    <connection from=":DE_1" to="E4" fromLane="1" toLane="1" dir="s" state="M"/>
    <connection from=":DE_1" to="E4" fromLane="2" toLane="2" dir="s" state="M"/>
    <connection from=":DE_4" to="E0" fromLane="0" toLane="3" dir="l" state="M"/>
    <connection from=":DE_5" to="E3" fromLane="0" toLane="0" dir="r" state="M"/>
    <connection from=":DE_6" to="E2TL" fromLane="0" toLane="0" dir="s" state="M"/>
    <connection from=":DE_6" to="E2TL" fromLane="1" toLane="1" dir="s" state="M"/>
    <connection from=":DE_6" to="E2TL" fromLane="2" toLane="2" dir="s" state="M"/>
    <connection from=":DE_9" to="E4" fromLane="0" toLane="3" dir="l" state="M"/>
    <connection from=":DE_10" to="E0" fromLane="0" toLane="0" dir="r" state="M"/>
    <connection from=":DE_11" to="E3" fromLane="0" toLane="0" dir="s" state="M"/>
    <connection from=":DE_11" to="E3" fromLane="1" toLane="1" dir="s" state="M"/>
    <connection from=":DE_11" to="E3" fromLane="2" toLane="2" dir="s" state="M"/>
    <connection from=":DE_14" to="E2TL" fromLane="0" toLane="3" dir="l" state="M"/>
    <connection from=":DE_15" to="E4" fromLane="0" toLane="0" dir="r" state="M"/>
    <connection from=":DE_16" to="E0" fromLane="0" toLane="0" dir="s" state="M"/>
    <connection from=":DE_16" to="E0" fromLane="1" toLane="1" dir="s" state="M"/>
    <connection from=":DE_16" to="E0" fromLane="2" toLane="2" dir="s" state="M"/>
    <connection from=":DE_19" to="E3" fromLane="0" toLane="3" dir="l" state="M"/>
    <connection from=":TL_0" to="TL2W" fromLane="0" toLane="0" dir="r" state="M"/>
    <connection from=":TL_1" to="TL2S" fromLane="0" toLane="0" dir="s" state="M"/>
    <connection from=":TL_1" to="TL2S" fromLane="1" toLane="1" dir="s" state="M"/>
    <connection from=":TL_1" to="TL2S" fromLane="2" toLane="2" dir="s" state="M"/>
    <connection from=":TL_4" to="TL2E" fromLane="0" toLane="3" dir="l" state="M"/>
    <connection from=":TL_5" to="TL2N" fromLane="0" toLane="0" dir="r" state="M"/>
    <connection from=":TL_6" to="TL2W" fromLane="0" toLane="0" dir="s" state="M"/>
    <connection from=":TL_6" to="TL2W" fromLane="1" toLane="1" dir="s" state="M"/>
    <connection from=":TL_6" to="TL2W" fromLane="2" toLane="2" dir="s" state="M"/>
    <connection from=":TL_9" to="TL2S" fromLane="0" toLane="3" dir="l" state="M"/>
    <connection from=":TL_10" to="TL2E" fromLane="0" toLane="0" dir="r" state="M"/>
    <connection from=":TL_11" to="TL2N" fromLane="0" toLane="0" dir="s" state="M"/>
    <connection from=":TL_11" to="TL2N" fromLane="1" toLane="1" dir="s" state="M"/>
    <connection from=":TL_11" to="TL2N" fromLane="2" toLane="2" dir="s" state="M"/>
    <connection from=":TL_14" to="TL2W" fromLane="0" toLane="3" dir="l" state="M"/>
    <connection from=":TL_15" to="TL2S" fromLane="0" toLane="0" dir="r" state="M"/>
    <connection from=":TL_16" to="TL2E" fromLane="0" toLane="0" dir="s" state="M"/>
    <connection from=":TL_16" to="TL2E" fromLane="1" toLane="1" dir="s" state="M"/>