<routes>
            <vType accel="1.0" decel="4.5" id="standard_car" length="5.0" minGap="2.5" maxSpeed="25" sigma="0.5" />

            <route id="W_N1" edges="W2TL TL2N"/>
            <route id="W_S1" edges="W2TL TL2S"/>
            <route id="W_E" edges="W2TL TL2E E0"/>
            <route id="W_N2" edges="W2TL TL2E E3"/>
            <route id="W_S2" edges="W2TL TL2E E4"/>
                  
            <route id="N1_W" edges="N2TL TL2W"/>
            <route id="N1_E" edges="N2TL TL2E E0"/>
            <route id="N1_S1" edges="N2TL TL2S"/>
            <route id="N1_S2" edges="N2TL TL2E E4"/>  
            <route id="N1_N2" edges="N2TL TL2E E3"/>

            <route id="S1_W" edges="S2TL TL2W"/>
            <route id="S1_N1" edges="S2TL TL2N"/>
            <route id="S1_E" edges="S2TL TL2E E0"/>
            <route id="S1_N2" edges="S2TL TL2E E3"/>
            <route id="S1_S2" edges="S2TL TL2E E4"/>
        
            <route id="E_W" edges="-E0 E2TL TL2W"/>
            <route id="E_N1" edges="-E0 E2TL TL2N"/>
            <route id="E_S1" edges="-E0 E2TL TL2S"/>
            <route id="E_N2" edges="-E0 E3"/>
            <route id="E_S2" edges="-E0 E4"/>
  
            <route id="N2_W" edges="-E3 E2TL TL2W"/>
            <route id="N2_E" edges="-E3 E0"/>
            <route id="N2_S1" edges="-E3 E2TL TL2S"/>
            <route id="N2_S2" edges="-E3 E4"/>  
            <route id="N2_N1" edges="-E3 E2TL TL2N"/>
              
            <route id="S2_W" edges="-E4 E2TL TL2W"/>
            <route id="S2_N1" edges="-E4 E2TL TL2N"/>
            <route id="S2_E" edges="-E4 E0"/>
            <route id="S2_N2" edges="-E4 E3"/>
            <route id="S2_S1" edges="-E4 E2TL TL2S"/> 
    <vehicle id="E_W_0" type="standard_car" route="E_W" depart="126.0" departLane="random" departSpeed="10" />
    <vehicle id="S1_N1_1" type="standard_car" route="S1_N1" depart="182.0" departLane="random" departSpeed="10" />
    <vehicle id="E_W_2" type="standard_car" route="E_W" depart="461.0" departLane="random" departSpeed="10" />
    <vehicle id="W_N2_3" type="standard_car" route="W_N2" depart="504.0" departLane="random" departSpeed="10" />
    <vehicle id="E_S1_4" type="standard_car" route="E_S1" depart="539.0" departLane="random" departSpeed="10" />
    <vehicle id="N2_S2_5" type="standard_car" route="N2_S2" depart="563.0" departLane="random" departSpeed="10" />
    <vehicle id="S2_N2_6" type="standard_car" route="S2_N2" depart="579.0" departLane="random" departSpeed="10" />
    <vehicle id="N1_S1_7" type="standard_car" route="N1_S1" depart="624.0" departLane="random" departSpeed="10" />
    <vehicle id="S1_N1_8" type="standard_car" route="S1_N1" depart="638.0" departLane="random" departSpeed="10" />
    <vehicle id="S1_N1_9" type="standard_car" route="S1_N1" depart="642.0" departLane="random" departSpeed="10" />
    <vehicle id="S1_N1_10" type="standard_car" route="S1_N1" depart="648.0" departLane="random" departSpeed="10" />
    <vehicle id="N1_S1_11" type="standard_car" route="N1_S1" depart="698.0" departLane="random" departSpeed="10" />
    <vehicle id="N2_E_12" type="standard_car" route="N2_E" depart="715.0" departLane="random" departSpeed="10" />
    <vehicle id="N2_S2_13" type="standard_car" route="N2_S2" depart="729.0" departLane="random" departSpeed="10" />
    <vehicle id="W_E_14" type="standard_car" route="W_E" depart="729.0" departLane="random" departSpeed="10" />
    <vehicle id="S1_N1_15" type="standard_car" route="S1_N1" depart="767.0" departLane="random" departSpeed="10" />
    <vehicle id="N1_W_16" type="standard_car" route="N1_W" depart="773.0" departLane="random" departSpeed="10" />
    <vehicle id="E_S2_17" type="standard_car" route="E_S2" depart="783.0" departLane="random" departSpeed="10" />
    <vehicle id="S2_N2_18" type="standard_car" route="S2_N2" depart="812.0" departLane="random" departSpeed="10" />
    <vehicle id="N2_S2_19" type="standard_car" route="N2_S2" depart="822.0" departLane="random" departSpeed="10" />
    <vehicle id="E_W_20" type="standard_car" route="E_W" depart="840.0" departLane="random" departSpeed="10" />
    <vehicle id="W_E_21" type="standard_car" route="W_E" depart="846.0" departLane="random" departSpeed="10" />
    <vehicle id="S1_N1_22" type="standard_car" route="S1_N1" depart="855.0" departLane="random" departSpeed="10" />
    <vehicle id="E_N2_23" type="standard_car" route="E_N2" depart="864.0" departLane="random" departSpeed="10" />
    <vehicle id="S1_N1_24" type="standard_car" route="S1_N1" depart="886.0" departLane="random" departSpeed="10" />
    <vehicle id="N1_S1_25" type="standard_car" route="N1_S1" depart="887.0" departLane="random" departSpeed="10" />
    <vehicle id="N2_S2_26" type="standard_car" route="N2_S2" depart="889.0" departLane="random" departSpeed="10" />
    <vehicle id="N2_E_27" type="standard_car" route="N2_E" depart="902.0" departLane="random" departSpeed="10" />
    <vehicle id="N1_W_28" type="standard_car" route="N1_W" depart="904.0" departLane="random" departSpeed="10" />
    <vehicle id="W_S1_29" type="standard_car" route="W_S1" depart="913.0" departLane="random" departSpeed="10" />
    <vehicle id="N2_E_30" type="standard_car" route="N2_E" depart="913.0" departLane="random" departSpeed="10" />
    <vehicle id="W_E_31" type="standard_car" route="W_E" depart="915.0" departLane="random" departSpeed="10" />
    <vehicle id="N1_S1_32" type="standard_car" route="N1_S1" depart="923.0" departLane="random" departSpeed="10" />
    <vehicle id="N1_S1_33" type="standard_car" route="N1_S1" depart="928.0" departLane="random" departSpeed="10" />
    <vehicle id="S2_W_34" type="standard_car" route="S2_W" depart="938.0" departLane="random" departSpeed="10" />
    <vehicle id="E_N1_35" type="standard_car" route="E_N1" depart="950.0" departLane="random" departSpeed="10" />
    <vehicle id="S2_W_36" type="standard_car" route="S2_W" depart="964.0" departLane="random" departSpeed="10" />
    <vehicle id="N2_W_37" type="standard_car" route="N2_W" depart="965.0" departLane="random" departSpeed="10" />
    <vehicle id="S2_N2_38" type="standard_car" route="S2_N2" depart="986.0" departLane="random" departSpeed="10" />
    <vehicle id="S2_W_39" type="standard_car" route="S2_W" depart="987.0" departLane="random" departSpeed="10" />
    <vehicle id="S2_W_40" type="standard_car" route="S2_W" depart="989.0" departLane="random" departSpeed="10" />
    <vehicle id="S1_N1_41" type="standard_car" route="S1_N1" depart="991.0" departLane="random" departSpeed="10" />
    <vehicle id="W_S2_42" type="standard_car" route="W_S2" depart="997.0" departLane="random" departSpeed="10" />
    <vehicle id="N1_S1_43" type="standard_car" route="N1_S1" depart="999.0" departLane="random" departSpeed="10" />
    <vehicle id="E_W_44" type="standard_car" route="E_W" depart="1004.0" departLane="random" departSpeed="10" />
    <vehicle id="S2_W_45" type="standard_car" route="S2_W" depart="1004.0" departLane="random" departSpeed="10" />
    <vehicle id="N2_W_46" type="standard_car" route="N2_W" depart="1011.0" departLane="random" departSpeed="10" />
    <vehicle id="E_S2_47" type="standard_car" route="E_S2" depart="1014.0" departLane="random" departSpeed="10" />
    <vehicle id="S2_N2_48" type="standard_car" route="S2_N2" depart="1018.0" departLane="random" departSpeed="10" />
    <vehicle id="E_W_49" type="standard_car" route="E_W" depart="1027.0" departLane="random" departSpeed="10" />
    <vehicle id="E_N1_50" type="standard_car" route="E_N1" depart="1028.0" departLane="random" departSpeed="10" />
    <vehicle id="W_N1_51" type="standard_car" route="W_N1" depart="1031.0" departLane="random" departSpeed="10" />
    <vehicle id="S1_E_52" type="standard_car" route="S1_E" depart="1033.0" departLane="random" departSpeed="10" />
    <vehicle id="W_N2_53" type="standard_car" route="W_N2" depart="1055.0" departLane="random" departSpeed="10" />
    <vehicle id="E_W_54" type="standard_car" route="E_W" depart="1066.0" departLane="random" departSpeed="10" />
    <vehicle id="N1_E_55" type="standard_car" route="N1_E" depart="1067.0" departLane="random" departSpeed="10" />
    <vehicle id="S2_N2_56" type="standard_car" route="S2_N2" depart="1070.0" departLane="random" departSpeed="10" />
    <vehicle id="N1_S1_57" type="standard_car" route="N1_S1" depart="1073.0" departLane="random" departSpeed="10" />
    <vehicle id="S2_N2_58" type="standard_car" route="S2_N2" depart="1074.0" departLane="random" departSpeed="10" />
    <vehicle id="S1_W_59" type="standard_car" route="S1_W" depart="1078.0" departLane="random" departSpeed="10" />
    <vehicle id="E_N2_60" type="standard_car" route="E_N2" depart="1079.0" departLane="random" departSpeed="10" />
    <vehicle id="S2_N2_61" type="standard_car" route="S2_N2" depart="1088.0" departLane="random" departSpeed="10" />
    <vehicle id="N2_S2_62" type="standard_car" route="N2_S2" depart="1096.0" departLane="random" departSpeed="10" />
    <vehicle id="S2_N2_63" type="standard_car" route="S2_N2" depart="1098.0" departLane="random" departSpeed="10" />
    <vehicle id="E_S1_64" type="standard_car" route="E_S1" depart="1101.0" departLane="random" departSpeed="10" />
    <vehicle id="N2_S2_65" type="standard_car" route="N2_S2" depart="1102.0" departLane="random" departSpeed="10" />
    <vehicle id="W_S2_66" type="standard_car" route="W_S2" depart="1103.0" departLane="random" departSpeed="10" />
    <vehicle id="S1_N1_67" type="standard_car" route="S1_N1" depart="1108.0" departLane="random" departSpeed="10" />
    <vehicle id="S1_N1_68" type="standard_car" route="S1_N1" depart="1109.0" departLane="random" departSpeed="10" />
    <vehicle id="N1_S1_69" type="standard_car" route="N1_S1" depart="1117.0" departLane="random" departSpeed="10" />
    <vehicle id="N2_W_70" type="standard_car" route="N2_W" depart="1125.0" departLane="random" departSpeed="10" />
    <vehicle id="N2_S2_71" type="standard_car" route="N2_S2" depart="1145.0" departLane="random" departSpeed="10" />
    <vehicle id="S1_N1_72" type="standard_car" route="S1_N1" depart="1146.0" departLane="random" departSpeed="10" />
    <vehicle id="N1_S1_73" type="standard_car" route="N1_S1" depart="1157.0" departLane="random" departSpeed="10" />
    <vehicle id="N1_S1_74" type="standard_car" route="N1_S1" depart="1158.0" departLane="random" departSpeed="10" />
    <vehicle id="E_W_75" type="standard_car" route="E_W" depart="1162.0" departLane="random" departSpeed="10" />
    <vehicle id="W_E_76" type="standard_car" route="W_E" depart="1168.0" departLane="random" departSpeed="10" />
    <vehicle id="S1_E_77" type="standard_car" route="S1_E" depart="1171.0" departLane="random" departSpeed="10" />
    <vehicle id="N2_S2_78" type="standard_car" route="N2_S2" depart="1172.0" departLane="random" departSpeed="10" />
    <vehicle id="N1_E_79" type="standard_car" route="N1_E" depart="1178.0" departLane="random" departSpeed="10" />
    <vehicle id="S1_W_80" type="standard_car" route="S1_W" depart="1180.0" departLane="random" departSpeed="10" />
    <vehicle id="E_W_81" type="standard_car" route="E_W" depart="1181.0" departLane="random" departSpeed="10" />
    <vehicle id="W_E_82" type="standard_car" route="W_E" depart="1193.0" departLane="random" departSpeed="10" />
    <vehicle id="N1_W_83" type="standard_car" route="N1_W" depart="1201.0" departLane="random" departSpeed="10" />
    <vehicle id="W_E_84" type="standard_car" route="W_E" depart="1205.0" departLane="random" departSpeed="10" />
    <vehicle id="S2_N2_85" type="standard_car" route="S2_N2" depart="1215.0" departLane="random" departSpeed="10" />
    <vehicle id="S1_W_86" type="standard_car" route="S1_W" depart="1217.0" departLane="random" departSpeed="10" />
    <vehicle id="S2_W_87" type="standard_car" route="S2_W" depart="1222.0" departLane="random" departSpeed="10" />
    <vehicle id="N2_S2_88" type="standard_car" route="N2_S2" depart="1223.0" departLane="random" departSpeed="10" />
    <vehicle id="N2_S2_89" type="standard_car" route="N2_S2" depart="1224.0" departLane="random" departSpeed="10" />
    <vehicle id="N2_S2_90" type="standard_car" route="N2_S2" depart="1239.0" departLane="random" departSpeed="10" />
    <vehicle id="W_N1_91" type="standard_car" route="W_N1" depart="1243.0" departLane="random" departSpeed="10" />
    <vehicle id="E_W_92" type="standard_car" route="E_W" depart="1243.0" departLane="random" departSpeed="10" />
    <vehicle id="W_E_93" type="standard_car" route="W_E" depart="1254.0" departLane="random" departSpeed="10" />
    <vehicle id="S1_N1_94" type="standard_car" route="S1_N1" depart="1267.0" departLane="random" departSpeed="10" />
    <vehicle id="S1_W_95" type="standard_car" route="S1_W" depart="1267.0" departLane="random" departSpeed="10" />
    <vehicle id="W_E_96" type="standard_car" route="W_E" depart="1271.0" departLane="random" departSpeed="10" />
    <vehicle id="N1_E_97" type="standard_car" route="N1_E" depart="1272.0" departLane="random" departSpeed="10" />
    <vehicle id="N1_S1_98" type="standard_car" route="N1_S1" depart="1286.0" departLane="random" departSpeed="10" />
    <vehicle id="S2_N2_99" type="standard_car" route="S2_N2" depart="1287.0" departLane="random" departSpeed="10" />
    <vehicle id="E_N1_100" type="standard_car" route="E_N1" depart="1290.0" departLane="random" departSpeed="10" />
    <vehicle id="S1_N1_101" type="standard_car" route="S1_N1" depart="1290.0" departLane="random" departSpeed="10" />
    <vehicle id="E_W_102" type="standard_car" route="E_W" depart="1293.0" departLane="random" departSpeed="10" />
    <vehicle id="E_S1_103" type="standard_car" route="E_S1" depart="1294.0" departLane="random" departSpeed="10" />
    <vehicle id="S2_N2_104" type="standard_car" route="S2_N2" depart="1300.0" departLane="random" departSpeed="10" />
    <vehicle id="E_S1_105" type="standard_car" route="E_S1" depart="1305.0" departLane="random" departSpeed="10" />
    <vehicle id="E_S1_106" type="standard_car" route="E_S1" depart="1307.0" departLane="random" departSpeed="10" />
    <vehicle id="N2_S2_107" type="standard_car" route="N2_S2" depart="1313.0" departLane="random" departSpeed="10" />
    <vehicle id="E_W_108" type="standard_car" route="E_W" depart="1314.0" departLane="random" departSpeed="10" />
    <vehicle id="W_E_109" type="standard_car" route="W_E" depart="1315.0" departLane="random" departSpeed="10" />
    <vehicle id="S1_N1_110" type="standard_car" route="S1_N1" depart="1317.0" departLane="random" departSpeed="10" />
    <vehicle id="S1_W_111" type="standard_car" route="S1_W" depart="1318.0" departLane="random" departSpeed="10" />
    <vehicle id="S2_N2_112" type="standard_car" route="S2_N2" depart="1320.0" departLane="random" departSpeed="10" />
    <vehicle id="W_S1_113" type="standard_car" route="W_S1" depart="1320.0" departLane="random" departSpeed="10" />
    <vehicle id="N2_S2_114" type="standard_car" route="N2_S2" depart="1322.0" departLane="random" departSpeed="10" />
    <vehicle id="S1_N1_115" type="standard_car" route="S1_N1" depart="1323.0" departLane="random" departSpeed="10" />
    <vehicle id="N2_W_116" type="standard_car" route="N2_W" depart="1324.0" departLane="random" departSpeed="10" />
    <vehicle id="E_N2_117" type="standard_car" route="E_N2" depart="1325.0" departLane="random" departSpeed="10" />
    <vehicle id="N1_S1_118" type="standard_car" route="N1_S1" depart="1325.0" departLane="random" departSpeed="10" />
    <vehicle id="N2_E_119" type="standard_car" route="N2_E" depart="1333.0" departLane="random" departSpeed="10" />
    <vehicle id="S1_N1_120" type="standard_car" route="S1_N1" depart="1334.0" departLane="random" departSpeed="10" />
    <vehicle id="N1_S1_121" type="standard_car" route="N1_S1" depart="1343.0" departLane="random" departSpeed="10" />
    <vehicle id="S2_N2_122" type="standard_car" route="S2_N2" depart="1343.0" departLane="random" departSpeed="10" />
    <vehicle id="S1_N1_123" type="standard_car" route="S1_N1" depart="1348.0" departLane="random" departSpeed="10" />
    <vehicle id="W_N1_124" type="standard_car" route="W_N1" depart="1349.0" departLane="random" departSpeed="10" />
    <vehicle id="N1_S1_125" type="standard_car" route="N1_S1" depart="1354.0" departLane="random" departSpeed="10" />
    <vehicle id="N2_S2_126" type="standard_car" route="N2_S2" depart="1356.0" departLane="random" departSpeed="10" />
    <vehicle id="E_N2_127" type="standard_car" route="E_N2" depart="1360.0" departLane="random" departSpeed="10" />
    <vehicle id="E_W_128" type="standard_car" route="E_W" depart="1361.0" departLane="random" departSpeed="10" />
    <vehicle id="E_N1_129" type="standard_car" route="E_N1" depart="1362.0" departLane="random" departSpeed="10" />
    <vehicle id="W_E_130" type="standard_car" route="W_E" depart="1366.0" departLane="random" departSpeed="10" />
    <vehicle id="W_E_131" type="standard_car" route="W_E" depart="1369.0" departLane="random" departSpeed="10" />
    <vehicle id="S2_N2_132" type="standard_car" route="S2_N2" depart="1369.0" departLane="random" departSpeed="10" />
    <vehicle id="N1_S1_133" type="standard_car" route="N1_S1" depart="1376.0" departLane="random" departSpeed="10" />
    <vehicle id="E_W_134" type="standard_car" route="E_W" depart="1377.0" departLane="random" departSpeed="10" />
    <vehicle id="W_E_135" type="standard_car" route="W_E" depart="1381.0" departLane="random" departSpeed="10" />
    <vehicle id="N1_S1_136" type="standard_car" route="N1_S1" depart="1386.0" departLane="random" departSpeed="10" />
    <vehicle id="E_W_137" type="standard_car" route="E_W" depart="1387.0" departLane="random" departSpeed="10" />
    <vehicle id="S1_N1_138" type="standard_car" route="S1_N1" depart="1391.0" departLane="random" departSpeed="10" />
    <vehicle id="N1_S1_139" type="standard_car" route="N1_S1" depart="1394.0" departLane="random" departSpeed="10" />
    <vehicle id="S1_N1_140" type="standard_car" route="S1_N1" depart="1400.0" departLane="random" departSpeed="10" />
    <vehicle id="S1_E_141" type="standard_car" route="S1_E" depart="1403.0" departLane="random" departSpeed="10" />
    <vehicle id="N1_S1_142" type="standard_car" route="N1_S1" depart="1404.0" departLane="random" departSpeed="10" />
    <vehicle id="N1_W_143" type="standard_car" route="N1_W" depart="1410.0" departLane="random" departSpeed="10" />
    <vehicle id="N2_E_144" type="standard_car" route="N2_E" depart="1413.0" departLane="random" departSpeed="10" />
    <vehicle id="S1_N1_145" type="standard_car" route="S1_N1" depart="1413.0" departLane="random" departSpeed="10" />
    <vehicle id="S2_N2_146" type="standard_car" route="S2_N2" depart="1426.0" departLane="random" departSpeed="10" />
    <vehicle id="E_W_147" type="standard_car" route="E_W" depart="1427.0" departLane="random" departSpeed="10" />
    <vehicle id="W_S1_148" type="standard_car" route="W_S1" depart="1427.0" departLane="random" departSpeed="10" />
    <vehicle id="E_S1_149" type="standard_car" route="E_S1" depart="1428.0" departLane="random" departSpeed="10" />
    <vehicle id="N2_E_150" type="standard_car" route="N2_E" depart="1434.0" departLane="random" departSpeed="10" />
    <vehicle id="N2_W_151" type="standard_car" route="N2_W" depart="1434.0" departLane="random" departSpeed="10" />
    <vehicle id="W_E_152" type="standard_car" route="W_E" depart="1437.0" departLane="random" departSpeed="10" />
    <vehicle id="S1_N1_153" type="standard_car" route="S1_N1" depart="1440.0" departLane="random" departSpeed="10" />
    <vehicle id="E_W_154" type="standard_car" route="E_W" depart="1442.0" departLane="random" departSpeed="10" />
    <vehicle id="N2_S2_155" type="standard_car" route="N2_S2" depart="1448.0" departLane="random" departSpeed="10" />
    <vehicle id="W_N2_156" type="standard_car" route="W_N2" depart="1455.0" departLane="random" departSpeed="10" />
    <vehicle id="W_S2_157" type="standard_car" route="W_S2" depart="1463.0" departLane="random" departSpeed="10" />
    <vehicle id="S2_N2_158" type="standard_car" route="S2_N2" depart="1464.0" departLane="random" departSpeed="10" />
    <vehicle id="S1_E_159" type="standard_car" route="S1_E" depart="1465.0" departLane="random" departSpeed="10" />
    <vehicle id="E_N2_160" type="standard_car" route="E_N2" depart="1468.0" departLane="random" departSpeed="10" />
    <vehicle id="E_N2_161" type="standard_car" route="E_N2" depart="1470.0" departLane="random" departSpeed="10" />
    <vehicle id="N1_S1_162" type="standard_car" route="N1_S1" depart="1473.0" departLane="random" departSpeed="10" />
    <vehicle id="S2_N2_163" type="standard_car" route="S2_N2" depart="1474.0" departLane="random" departSpeed="10" />
    <vehicle id="S1_N1_164" type="standard_car" route="S1_N1" depart="1477.0" departLane="random" departSpeed="10" />
    <vehicle id="N1_S1_165" type="standard_car" route="N1_S1" depart="1477.0" departLane="random" departSpeed="10" />
    <vehicle id="W_S1_166" type="standard_car" route="W_S1" depart="1477.0" departLane="random" departSpeed="10" />
    <vehicle id="N1_S1_167" type="standard_car" route="N1_S1" depart="1481.0" departLane="random" departSpeed="10" />
    <vehicle id="W_E_168" type="standard_car" route="W_E" depart="1482.0" departLane="random" departSpeed="10" />
    <vehicle id="N1_S1_169" type="standard_car" route="N1_S1" depart="1483.0" departLane="random" departSpeed="10" />
    <vehicle id="W_E_170" type="standard_car" route="W_E" depart="1493.0" departLane="random" departSpeed="10" />
    <vehicle id="E_W_171" type="standard_car" route="E_W" depart="1495.0" departLane="random" departSpeed="10" />
    <vehicle id="N1_E_172" type="standard_car" route="N1_E" depart="1505.0" departLane="random" departSpeed="10" />
    <vehicle id="S1_N1_173" type="standard_car" route="S1_N1" depart="1509.0" departLane="random" departSpeed="10" />
    <vehicle id="W_N1_174" type="standard_car" route="W_N1" depart="1510.0" departLane="random" departSpeed="10" />
    <vehicle id="W_E_175" type="standard_car" route="W_E" depart="1512.0" departLane="random" departSpeed="10" />
    <vehicle id="W_N2_176" type="standard_car" route="W_N2" depart="1515.0" departLane="random" departSpeed="10" />
    <vehicle id="N2_S2_177" type="standard_car" route="N2_S2" depart="1516.0" departLane="random" departSpeed="10" />
    <vehicle id="N2_S2_178" type="standard_car" route="N2_S2" depart="1516.0" departLane="random" departSpeed="10" />
    <vehicle id="E_N2_179" type="standard_car" route="E_N2" depart="1516.0" departLane="random" departSpeed="10" />
    <vehicle id="S1_E_180" type="standard_car" route="S1_E" depart="1520.0" departLane="random" departSpeed="10" />
    <vehicle id="N2_S2_181" type="standard_car" route="N2_S2" depart="1525.0" departLane="random" departSpeed="10" />
    <vehicle id="N2_S2_182" type="standard_car" route="N2_S2" depart="1530.0" departLane="random" departSpeed="10" />
    <vehicle id="N2_S2_183" type="standard_car" route="N2_S2" depart="1535.0" departLane="random" departSpeed="10" />
    <vehicle id="S1_W_184" type="standard_car" route="S1_W" depart="1536.0" departLane="random" departSpeed="10" />
    <vehicle id="N1_S1_185" type="standard_car" route="N1_S1" depart="1537.0" departLane="random" departSpeed="10" />
    <vehicle id="W_N1_186" type="standard_car" route="W_N1" depart="1538.0" departLane="random" departSpeed="10" />
    <vehicle id="S2_W_187" type="standard_car" route="S2_W" depart="1541.0" departLane="random" departSpeed="10" />
    <vehicle id="S2_N2_188" type="standard_car" route="S2_N2" depart="1552.0" departLane="random" departSpeed="10" />
    <vehicle id="N1_S1_189" type="standard_car" route="N1_S1" depart="1552.0" departLane="random" departSpeed="10" />
    <vehicle id="S1_W_190" type="standard_car" route="S1_W" depart="1553.0" departLane="random" departSpeed="10" />
    <vehicle id="S2_W_191" type="standard_car" route="S2_W" depart="1556.0" departLane="random" departSpeed="10" />
    <vehicle id="N2_S2_192" type="standard_car" route="N2_S2" depart="1557.0" departLane="random" departSpeed="10" />
    <vehicle id="S2_W_193" type="standard_car" route="S2_W" depart="1561.0" departLane="random" departSpeed="10" />
    <vehicle id="S1_N1_194" type="standard_car" route="S1_N1" depart="1563.0" departLane="random" departSpeed="10" />
    <vehicle id="E_S1_195" type="standard_car" route="E_S1" depart="1564.0" departLane="random" departSpeed="10" />
    <vehicle id="S2_W_196" type="standard_car" route="S2_W" depart="1564.0" departLane="random" departSpeed="10" />
    <vehicle id="S2_N2_197" type="standard_car" route="S2_N2" depart="1565.0" departLane="random" departSpeed="10" />
    <vehicle id="S2_N2_198" type="standard_car" route="S2_N2" depart="1565.0" departLane="random" departSpeed="10" />
    <vehicle id="N1_W_199" type="standard_car" route="N1_W" depart="1567.0" departLane="random" departSpeed="10" />
    <vehicle id="S2_W_200" type="standard_car" route="S2_W" depart="1568.0" departLane="random" departSpeed="10" />
    <vehicle id="S1_N1_201" type="standard_car" route="S1_N1" depart="1569.0" departLane="random" departSpeed="10" />
    <vehicle id="N1_S1_202" type="standard_car" route="N1_S1" depart="1576.0" departLane="random" departSpeed="10" />
    <vehicle id="W_S1_203" type="standard_car" route="W_S1" depart="1576.0" departLane="random" departSpeed="10" />
    <vehicle id="W_N2_204" type="standard_car" route="W_N2" depart="1577.0" departLane="random" departSpeed="10" />
    <vehicle id="W_N2_205" type="standard_car" route="W_N2" depart="1578.0" departLane="random" departSpeed="10" />
    <vehicle id="W_E_206" type="standard_car" route="W_E" depart="1582.0" departLane="random" departSpeed="10" />
    <vehicle id="S1_W_207" type="standard_car" route="S1_W" depart="1586.0" departLane="random" departSpeed="10" />
    <vehicle id="N2_S2_208" type="standard_car" route="N2_S2" depart="1587.0" departLane="random" departSpeed="10" />
    <vehicle id="W_S1_209" type="standard_car" route="W_S1" depart="1593.0" departLane="random" departSpeed="10" />
    <vehicle id="S1_N1_210" type="standard_car" route="S1_N1" depart="1593.0" departLane="random" departSpeed="10" />
    <vehicle id="W_E_211" type="standard_car" route="W_E" depart="1594.0" departLane="random" departSpeed="10" />
    <vehicle id="S2_N2_212" type="standard_car" route="S2_N2" depart="1599.0" departLane="random" departSpeed="10" />
    <vehicle id="S1_N1_213" type="standard_car" route="S1_N1" depart="1601.0" departLane="random" departSpeed="10" />
    <vehicle id="W_E_214" type="standard_car" route="W_E" depart="1602.0" departLane="random" departSpeed="10" />
    <vehicle id="N2_W_215" type="standard_car" route="N2_W" depart="1606.0" departLane="random" departSpeed="10" />
    <vehicle id="E_S1_216" type="standard_car" route="E_S1" depart="1608.0" departLane="random" departSpeed="10" />
    <vehicle id="S1_W_217" type="standard_car" route="S1_W" depart="1609.0" departLane="random" departSpeed="10" />
    <vehicle id="N2_S2_218" type="standard_car" route="N2_S2" depart="1611.0" departLane="random" departSpeed="10" />
    <vehicle id="N2_E_219" type="standard_car" route="N2_E" depart="1614.0" departLane="random" departSpeed="10" />
    <vehicle id="N1_E_220" type="standard_car" route="N1_E" depart="1615.0" departLane="random" departSpeed="10" />
    <vehicle id="W_S1_221" type="standard_car" route="W_S1" depart="1617.0" departLane="random" departSpeed="10" />
    <vehicle id="N1_S1_222" type="standard_car" route="N1_S1" depart="1617.0" departLane="random" departSpeed="10" />
    <vehicle id="W_N2_223" type="standard_car" route="W_N2" depart="1622.0" departLane="random" departSpeed="10" />
    <vehicle id="E_W_224" type="standard_car" route="E_W" depart="1625.0" departLane="random" departSpeed="10" />
    <vehicle id="W_E_225" type="standard_car" route="W_E" depart="1626.0" departLane="random" departSpeed="10" />
    <vehicle id="E_W_226" type="standard_car" route="E_W" depart="1626.0" departLane="random" departSpeed="10" />
    <vehicle id="N1_E_227" type="standard_car" route="N1_E" depart="1627.0" departLane="random" departSpeed="10" />
    <vehicle id="S1_N1_228" type="standard_car" route="S1_N1" depart="1628.0" departLane="random" departSpeed="10" />
    <vehicle id="N1_E_229" type="standard_car" route="N1_E" depart="1631.0" departLane="random" departSpeed="10" />
    <vehicle id="N1_S1_230" type="standard_car" route="N1_S1" depart="1635.0" departLane="random" departSpeed="10" />
    <vehicle id="N1_S1_231" type="standard_car" route="N1_S1" depart="1637.0" departLane="random" departSpeed="10" />
    <vehicle id="W_S1_232" type="standard_car" route="W_S1" depart="1638.0" departLane="random" departSpeed="10" />
    <vehicle id="W_S2_233" type="standard_car" route="W_S2" depart="1639.0" departLane="random" departSpeed="10" />
    <vehicle id="W_E_234" type="standard_car" route="W_E" depart="1643.0" departLane="random" departSpeed="10" />
    <vehicle id="S2_W_235" type="standard_car" route="S2_W" depart="1650.0" departLane="random" departSpeed="10" />
    <vehicle id="E_N2_236" type="standard_car" route="E_N2" depart="1651.0" departLane="random" departSpeed="10" />
    <vehicle id="N2_S2_237" type="standard_car" route="N2_S2" depart="1652.0" departLane="random" departSpeed="10" />
    <vehicle id="N2_S2_238" type="standard_car" route="N2_S2" depart="1653.0" departLane="random" departSpeed="10" />
    <vehicle id="S1_N1_239" type="standard_car" route="S1_N1" depart="1656.0" departLane="random" departSpeed="10" />
    <vehicle id="W_E_240" type="standard_car" route="W_E" depart="1656.0" departLane="random" departSpeed="10" />