<routes>
            <vType accel="1.0" decel="4.5" id="standard_car" length="5.0" minGap="2.5" maxSpeed="25" sigma="0.5" />

            <route id="W_N1" edges="W2TL TL2N"/>
            <route id="W_S1" edges="W2TL TL2S"/>
            <route id="W_E" edges="W2TL TL2E E0"/>
            <route id="W_N2" edges="W2TL TL2E E3"/>
            <route id="W_S2" edges="W2TL TL2E E4"/>
                  
            <route id="N1_W" edges="N2TL TL2W"/>
            <route id="N1_E" edges="N2TL TL2E E0"/>
            <route id="N1_S1" edges="N2TL TL2S"/>
            <route id="N1_S2" edges="N2TL TL2E E4"/>  
            <route id="N1_N2" edges="N2TL TL2E E3"/>

            <route id="S1_W" edges="S2TL TL2W"/>
            <route id="S1_N1" edges="S2TL TL2N"/>
            <route id="S1_E" edges="S2TL TL2E E0"/>
            <route id="S1_N2" edges="S2TL TL2E E3"/>
            <route id="S1_S2" edges="S2TL TL2E E4"/>
        
            <route id="E_W" edges="-E0 E2TL TL2W"/>
            <route id="E_N1" edges="-E0 E2TL TL2N"/>
            <route id="E_S1" edges="-E0 E2TL TL2S"/>
            <route id="E_N2" edges="-E0 E3"/>
            <route id="E_S2" edges="-E0 E4"/>
  
            <route id="N2_W" edges="-E3 E2TL TL2W"/>
            <route id="N2_E" edges="-E3 E0"/>
            <route id="N2_S1" edges="-E3 E2TL TL2S"/>
            <route id="N2_S2" edges="-E3 E4"/>  
            <route id="N2_N1" edges="-E3 E2TL TL2N"/>
              
            <route id="S2_W" edges="-E4 E2TL TL2W"/>
            <route id="S2_N1" edges="-E4 E2TL TL2N"/>
            <route id="S2_E" edges="-E4 E0"/>
            <route id="S2_N2" edges="-E4 E3"/>
            <route id="S2_S1" edges="-E4 E2TL TL2S"/> 
    <vehicle id="N1_S1_0" type="standard_car" route="N1_S1" depart="458.0" departLane="random" departSpeed="10" />
    <vehicle id="W_S2_1" type="standard_car" route="W_S2" depart="492.0" departLane="random" departSpeed="10" />
    <vehicle id="N2_S2_2" type="standard_car" route="N2_S2" depart="505.0" departLane="random" departSpeed="10" />
    <vehicle id="W_E_3" type="standard_car" route="W_E" depart="544.0" departLane="random" departSpeed="10" />
    <vehicle id="E_W_4" type="standard_car" route="E_W" depart="599.0" departLane="random" departSpeed="10" />
    <vehicle id="S1_E_5" type="standard_car" route="S1_E" depart="677.0" departLane="random" departSpeed="10" />
    <vehicle id="S2_N2_6" type="standard_car" route="S2_N2" depart="737.0" departLane="random" departSpeed="10" />
    <vehicle id="W_E_7" type="standard_car" route="W_E" depart="740.0" departLane="random" departSpeed="10" />
    <vehicle id="N1_S1_8" type="standard_car" route="N1_S1" depart="762.0" departLane="random" departSpeed="10" />
    <vehicle id="N2_S2_9" type="standard_car" route="N2_S2" depart="796.0" departLane="random" departSpeed="10" />
    <vehicle id="E_W_10" type="standard_car" route="E_W" depart="802.0" departLane="random" departSpeed="10" />
    <vehicle id="E_S1_11" type="standard_car" route="E_S1" depart="808.0" departLane="random" departSpeed="10" />
    <vehicle id="E_W_12" type="standard_car" route="E_W" depart="815.0" departLane="random" departSpeed="10" />
    <vehicle id="S2_N2_13" type="standard_car" route="S2_N2" depart="882.0" departLane="random" departSpeed="10" />
    <vehicle id="N1_S1_14" type="standard_car" route="N1_S1" depart="882.0" departLane="random" departSpeed="10" />
    <vehicle id="S2_N2_15" type="standard_car" route="S2_N2" depart="905.0" departLane="random" departSpeed="10" />
    <vehicle id="W_S1_16" type="standard_car" route="W_S1" depart="908.0" departLane="random" departSpeed="10" />
    <vehicle id="E_N1_17" type="standard_car" route="E_N1" depart="910.0" departLane="random" departSpeed="10" />
    <vehicle id="N2_S2_18" type="standard_car" route="N2_S2" depart="957.0" departLane="random" departSpeed="10" />
    <vehicle id="W_S2_19" type="standard_car" route="W_S2" depart="969.0" departLane="random" departSpeed="10" />
    <vehicle id="N1_S1_20" type="standard_car" route="N1_S1" depart="969.0" departLane="random" departSpeed="10" />
    <vehicle id="S1_N1_21" type="standard_car" route="S1_N1" depart="972.0" departLane="random" departSpeed="10" />
    <vehicle id="S2_N2_22" type="standard_car" route="S2_N2" depart="994.0" departLane="random" departSpeed="10" />
    <vehicle id="W_E_23" type="standard_car" route="W_E" depart="1011.0" departLane="random" departSpeed="10" />
    <vehicle id="N2_S2_24" type="standard_car" route="N2_S2" depart="1019.0" departLane="random" departSpeed="10" />
    <vehicle id="E_S2_25" type="standard_car" route="E_S2" depart="1022.0" departLane="random" departSpeed="10" />
    <vehicle id="S2_N2_26" type="standard_car" route="S2_N2" depart="1041.0" departLane="random" departSpeed="10" />
    <vehicle id="W_N1_27" type="standard_car" route="W_N1" depart="1047.0" departLane="random" departSpeed="10" />
    <vehicle id="S1_W_28" type="standard_car" route="S1_W" depart="1056.0" departLane="random" departSpeed="10" />
    <vehicle id="E_S1_29" type="standard_car" route="E_S1" depart="1070.0" departLane="random" departSpeed="10" />
    <vehicle id="S2_W_30" type="standard_car" route="S2_W" depart="1077.0" departLane="random" departSpeed="10" />
    <vehicle id="E_W_31" type="standard_car" route="E_W" depart="1090.0" departLane="random" departSpeed="10" />
    <vehicle id="N2_S2_32" type="standard_car" route="N2_S2" depart="1103.0" departLane="random" departSpeed="10" />
    <vehicle id="W_N2_33" type="standard_car" route="W_N2" depart="1110.0" departLane="random" departSpeed="10" />
    <vehicle id="N1_W_34" type="standard_car" route="N1_W" depart="1112.0" departLane="random" departSpeed="10" />
    <vehicle id="E_S2_35" type="standard_car" route="E_S2" depart="1122.0" departLane="random" departSpeed="10" />
    <vehicle id="S1_N1_36" type="standard_car" route="S1_N1" depart="1136.0" departLane="random" departSpeed="10" />
    <vehicle id="N1_S1_37" type="standard_car" route="N1_S1" depart="1151.0" departLane="random" departSpeed="10" />
    <vehicle id="E_N1_38" type="standard_car" route="E_N1" depart="1172.0" departLane="random" departSpeed="10" />
    <vehicle id="W_E_39" type="standard_car" route="W_E" depart="1180.0" departLane="random" departSpeed="10" />
    <vehicle id="S1_W_40" type="standard_car" route="S1_W" depart="1184.0" departLane="random" departSpeed="10" />
    <vehicle id="N2_S2_41" type="standard_car" route="N2_S2" depart="1195.0" departLane="random" departSpeed="10" />
    <vehicle id="W_N2_42" type="standard_car" route="W_N2" depart="1196.0" departLane="random" departSpeed="10" />
    <vehicle id="E_S2_43" type="standard_car" route="E_S2" depart="1202.0" departLane="random" departSpeed="10" />
    <vehicle id="S1_N1_44" type="standard_car" route="S1_N1" depart="1203.0" departLane="random" departSpeed="10" />
    <vehicle id="W_E_45" type="standard_car" route="W_E" depart="1213.0" departLane="random" departSpeed="10" />
    <vehicle id="N2_S2_46" type="standard_car" route="N2_S2" depart="1219.0" departLane="random" departSpeed="10" />
    <vehicle id="E_W_47" type="standard_car" route="E_W" depart="1226.0" departLane="random" departSpeed="10" />
    <vehicle id="E_S1_48" type="standard_car" route="E_S1" depart="1230.0" departLane="random" departSpeed="10" />
    <vehicle id="N1_S1_49" type="standard_car" route="N1_S1" depart="1232.0" departLane="random" departSpeed="10" />
    <vehicle id="W_E_50" type="standard_car" route="W_E" depart="1234.0" departLane="random" departSpeed="10" />
    <vehicle id="N2_S2_51" type="standard_car" route="N2_S2" depart="1239.0" departLane="random" departSpeed="10" />
    <vehicle id="S1_W_52" type="standard_car" route="S1_W" depart="1245.0" departLane="random" departSpeed="10" />
    <vehicle id="S1_N1_53" type="standard_car" route="S1_N1" depart="1252.0" departLane="random" departSpeed="10" />
    <vehicle id="N2_W_54" type="standard_car" route="N2_W" depart="1254.0" departLane="random" departSpeed="10" />
    <vehicle id="W_E_55" type="standard_car" route="W_E" depart="1257.0" departLane="random" departSpeed="10" />
    <vehicle id="W_S2_56" type="standard_car" route="W_S2" depart="1257.0" departLane="random" departSpeed="10" />
    <vehicle id="W_S1_57" type="standard_car" route="W_S1" depart="1262.0" departLane="random" departSpeed="10" />
    <vehicle id="N1_S1_58" type="standard_car" route="N1_S1" depart="1262.0" departLane="random" departSpeed="10" />
    <vehicle id="W_N1_59" type="standard_car" route="W_N1" depart="1265.0" departLane="random" departSpeed="10" />
    <vehicle id="W_E_60" type="standard_car" route="W_E" depart="1268.0" departLane="random" departSpeed="10" />
    <vehicle id="W_E_61" type="standard_car" route="W_E" depart="1270.0" departLane="random" departSpeed="10" />
    <vehicle id="E_W_62" type="standard_car" route="E_W" depart="1270.0" departLane="random" departSpeed="10" />
    <vehicle id="S2_W_63" type="standard_car" route="S2_W" depart="1275.0" departLane="random" departSpeed="10" />
    <vehicle id="W_S1_64" type="standard_car" route="W_S1" depart="1290.0" departLane="random" departSpeed="10" />
    <vehicle id="E_S2_65" type="standard_car" route="E_S2" depart="1293.0" departLane="random" departSpeed="10" />
    <vehicle id="S1_N1_66" type="standard_car" route="S1_N1" depart="1300.0" departLane="random" departSpeed="10" />
    <vehicle id="N2_S2_67" type="standard_car" route="N2_S2" depart="1300.0" departLane="random" departSpeed="10" />
    <vehicle id="N1_E_68" type="standard_car" route="N1_E" depart="1321.0" departLane="random" departSpeed="10" />
    <vehicle id="W_E_69" type="standard_car" route="W_E" depart="1322.0" departLane="random" departSpeed="10" />
    <vehicle id="E_W_70" type="standard_car" route="E_W" depart="1325.0" departLane="random" departSpeed="10" />
    <vehicle id="S2_N2_71" type="standard_car" route="S2_N2" depart="1329.0" departLane="random" departSpeed="10" />
    <vehicle id="S1_E_72" type="standard_car" route="S1_E" depart="1330.0" departLane="random" departSpeed="10" />
    <vehicle id="S2_N2_73" type="standard_car" route="S2_N2" depart="1330.0" departLane="random" departSpeed="10" />
    <vehicle id="S2_W_74" type="standard_car" route="S2_W" depart="1335.0" departLane="random" departSpeed="10" />
    <vehicle id="S1_W_75" type="standard_car" route="S1_W" depart="1343.0" departLane="random" departSpeed="10" />
    <vehicle id="W_N1_76" type="standard_car" route="W_N1" depart="1343.0" departLane="random" departSpeed="10" />
    <vehicle id="S1_E_77" type="standard_car" route="S1_E" depart="1348.0" departLane="random" departSpeed="10" />
    <vehicle id="W_N1_78" type="standard_car" route="W_N1" depart="1353.0" departLane="random" departSpeed="10" />
    <vehicle id="W_E_79" type="standard_car" route="W_E" depart="1360.0" departLane="random" departSpeed="10" />
    <vehicle id="N2_E_80" type="standard_car" route="N2_E" depart="1364.0" departLane="random" departSpeed="10" />
    <vehicle id="W_E_81" type="standard_car" route="W_E" depart="1366.0" departLane="random" departSpeed="10" />
    <vehicle id="W_E_82" type="standard_car" route="W_E" depart="1369.0" departLane="random" departSpeed="10" />
    <vehicle id="E_N2_83" type="standard_car" route="E_N2" depart="1377.0" departLane="random" departSpeed="10" />
    <vehicle id="N1_E_84" type="standard_car" route="N1_E" depart="1377.0" departLane="random" departSpeed="10" />
    <vehicle id="S1_W_85" type="standard_car" route="S1_W" depart="1380.0" departLane="random" departSpeed="10" />
    <vehicle id="S1_N1_86" type="standard_car" route="S1_N1" depart="1380.0" departLane="random" departSpeed="10" />
    <vehicle id="N1_S1_87" type="standard_car" route="N1_S1" depart="1385.0" departLane="random" departSpeed="10" />
    <vehicle id="N1_S1_88" type="standard_car" route="N1_S1" depart="1406.0" departLane="random" departSpeed="10" />
    <vehicle id="W_E_89" type="standard_car" route="W_E" depart="1408.0" departLane="random" departSpeed="10" />
    <vehicle id="S1_N1_90" type="standard_car" route="S1_N1" depart="1409.0" departLane="random" departSpeed="10" />
    <vehicle id="S2_W_91" type="standard_car" route="S2_W" depart="1412.0" departLane="random" departSpeed="10" />
    <vehicle id="S2_W_92" type="standard_car" route="S2_W" depart="1420.0" departLane="random" departSpeed="10" />
    <vehicle id="S1_E_93" type="standard_car" route="S1_E" depart="1444.0" departLane="random" departSpeed="10" />
    <vehicle id="S2_N2_94" type="standard_car" route="S2_N2" depart="1452.0" departLane="random" departSpeed="10" />
    <vehicle id="W_S2_95" type="standard_car" route="W_S2" depart="1453.0" departLane="random" departSpeed="10" />
    <vehicle id="E_N1_96" type="standard_car" route="E_N1" depart="1453.0" departLane="random" departSpeed="10" />
    <vehicle id="N2_S2_97" type="standard_car" route="N2_S2" depart="1454.0" departLane="random" departSpeed="10" />
    <vehicle id="E_N2_98" type="standard_car" route="E_N2" depart="1460.0" departLane="random" departSpeed="10" />
    <vehicle id="N1_S1_99" type="standard_car" route="N1_S1" depart="1469.0" departLane="random" departSpeed="10" />
    <vehicle id="E_W_100" type="standard_car" route="E_W" depart="1473.0" departLane="random" departSpeed="10" />
    <vehicle id="S1_W_101" type="standard_car" route="S1_W" depart="1481.0" departLane="random" departSpeed="10" />
    <vehicle id="S1_N1_102" type="standard_car" route="S1_N1" depart="1486.0" departLane="random" departSpeed="10" />
    <vehicle id="E_S2_103" type="standard_car" route="E_S2" depart="1498.0" departLane="random" departSpeed="10" />
    <vehicle id="N1_S1_104" type="standard_car" route="N1_S1" depart="1503.0" departLane="random" departSpeed="10" />
    <vehicle id="S2_N2_105" type="standard_car" route="S2_N2" depart="1511.0" departLane="random" departSpeed="10" />
    <vehicle id="N1_W_106" type="standard_car" route="N1_W" depart="1512.0" departLane="random" departSpeed="10" />
    <vehicle id="E_W_107" type="standard_car" route="E_W" depart="1514.0" departLane="random" departSpeed="10" />
    <vehicle id="N2_E_108" type="standard_car" route="N2_E" depart="1522.0" departLane="random" departSpeed="10" />
    <vehicle id="S2_N2_109" type="standard_car" route="S2_N2" depart="1529.0" departLane="random" departSpeed="10" />
    <vehicle id="W_E_110" type="standard_car" route="W_E" depart="1529.0" departLane="random" departSpeed="10" />
    <vehicle id="N2_W_111" type="standard_car" route="N2_W" depart="1531.0" departLane="random" departSpeed="10" />
    <vehicle id="S2_N2_112" type="standard_car" route="S2_N2" depart="1531.0" departLane="random" departSpeed="10" />
    <vehicle id="W_S1_113" type="standard_car" route="W_S1" depart="1540.0" departLane="random" departSpeed="10" />
    <vehicle id="S1_N1_114" type="standard_car" route="S1_N1" depart="1549.0" departLane="random" departSpeed="10" />
    <vehicle id="W_E_115" type="standard_car" route="W_E" depart="1552.0" departLane="random" departSpeed="10" />
    <vehicle id="N2_W_116" type="standard_car" route="N2_W" depart="1553.0" departLane="random" departSpeed="10" />
    <vehicle id="N2_W_117" type="standard_car" route="N2_W" depart="1554.0" departLane="random" departSpeed="10" />
    <vehicle id="S1_E_118" type="standard_car" route="S1_E" depart="1555.0" departLane="random" departSpeed="10" />
    <vehicle id="W_S1_119" type="standard_car" route="W_S1" depart="1556.0" departLane="random" departSpeed="10" />
    <vehicle id="N1_S1_120" type="standard_car" route="N1_S1" depart="1564.0" departLane="random" departSpeed="10" />
    <vehicle id="S1_N1_121" type="standard_car" route="S1_N1" depart="1566.0" departLane="random" departSpeed="10" />
    <vehicle id="S2_N2_122" type="standard_car" route="S2_N2" depart="1572.0" departLane="random" departSpeed="10" />
    <vehicle id="N1_S1_123" type="standard_car" route="N1_S1" depart="1581.0" departLane="random" departSpeed="10" />
    <vehicle id="N1_E_124" type="standard_car" route="N1_E" depart="1588.0" departLane="random" departSpeed="10" />
    <vehicle id="N1_W_125" type="standard_car" route="N1_W" depart="1592.0" departLane="random" departSpeed="10" />
    <vehicle id="N1_E_126" type="standard_car" route="N1_E" depart="1603.0" departLane="random" departSpeed="10" />
    <vehicle id="W_E_127" type="standard_car" route="W_E" depart="1614.0" departLane="random" departSpeed="10" />
    <vehicle id="N1_S1_128" type="standard_car" route="N1_S1" depart="1615.0" departLane="random" departSpeed="10" />
    <vehicle id="N2_S2_129" type="standard_car" route="N2_S2" depart="1621.0" departLane="random" departSpeed="10" />
    <vehicle id="N2_S2_130" type="standard_car" route="N2_S2" depart="1623.0" departLane="random" departSpeed="10" />
    <vehicle id="W_E_131" type="standard_car" route="W_E" depart="1630.0" departLane="random" departSpeed="10" />
    <vehicle id="N1_W_132" type="standard_car" route="N1_W" depart="1631.0" departLane="random" departSpeed="10" />
    <vehicle id="E_W_133" type="standard_car" route="E_W" depart="1631.0" departLane="random" departSpeed="10" />
    <vehicle id="N1_E_134" type="standard_car" route="N1_E" depart="1636.0" departLane="random" departSpeed="10" />
    <vehicle id="S2_N2_135" type="standard_car" route="S2_N2" depart="1640.0" departLane="random" departSpeed="10" />
    <vehicle id="E_S1_136" type="standard_car" route="E_S1" depart="1641.0" departLane="random" departSpeed="10" />
    <vehicle id="N2_S2_137" type="standard_car" route="N2_S2" depart="1642.0" departLane="random" departSpeed="10" />
    <vehicle id="S1_E_138" type="standard_car" route="S1_E" depart="1643.0" departLane="random" departSpeed="10" />
    <vehicle id="W_S1_139" type="standard_car" route="W_S1" depart="1646.0" departLane="random" departSpeed="10" />
    <vehicle id="N2_S2_140" type="standard_car" route="N2_S2" depart="1647.0" departLane="random" departSpeed="10" />
    <vehicle id="W_N2_141" type="standard_car" route="W_N2" depart="1649.0" departLane="random" departSpeed="10" />
    <vehicle id="E_W_142" type="standard_car" route="E_W" depart="1660.0" departLane="random" departSpeed="10" />
    <vehicle id="E_N2_143" type="standard_car" route="E_N2" depart="1662.0" departLane="random" departSpeed="10" />
    <vehicle id="S1_N1_144" type="standard_car" route="S1_N1" depart="1666.0" departLane="random" departSpeed="10" />
    <vehicle id="E_S1_145" type="standard_car" route="E_S1" depart="1666.0" departLane="random" departSpeed="10" />
    <vehicle id="N1_S1_146" type="standard_car" route="N1_S1" depart="1669.0" departLane="random" departSpeed="10" />
    <vehicle id="S2_N2_147" type="standard_car" route="S2_N2" depart="1671.0" departLane="random" departSpeed="10" />
    <vehicle id="N1_S1_148" type="standard_car" route="N1_S1" depart="1675.0" departLane="random" departSpeed="10" />
    <vehicle id="S2_N2_149" type="standard_car" route="S2_N2" depart="1676.0" departLane="random" departSpeed="10" />
    <vehicle id="S2_N2_150" type="standard_car" route="S2_N2" depart="1678.0" departLane="random" departSpeed="10" />
    <vehicle id="N1_W_151" type="standard_car" route="N1_W" depart="1679.0" departLane="random" departSpeed="10" />
    <vehicle id="W_E_152" type="standard_car" route="W_E" depart="1680.0" departLane="random" departSpeed="10" />
    <vehicle id="N1_S1_153" type="standard_car" route="N1_S1" depart="1680.0" departLane="random" departSpeed="10" />
    <vehicle id="N2_S2_154" type="standard_car" route="N2_S2" depart="1683.0" departLane="random" departSpeed="10" />
    <vehicle id="N2_S2_155" type="standard_car" route="N2_S2" depart="1688.0" departLane="random" departSpeed="10" />
    <vehicle id="S2_N2_156" type="standard_car" route="S2_N2" depart="1689.0" departLane="random" departSpeed="10" />
    <vehicle id="E_W_157" type="standard_car" route="E_W" depart="1692.0" departLane="random" departSpeed="10" />
    <vehicle id="S1_N1_158" type="standard_car" route="S1_N1" depart="1695.0" departLane="random" departSpeed="10" />
    <vehicle id="S1_N1_159" type="standard_car" route="S1_N1" depart="1698.0" departLane="random" departSpeed="10" />
    <vehicle id="E_N2_160" type="standard_car" route="E_N2" depart="1707.0" departLane="random" departSpeed="10" />
    <vehicle id="N1_W_161" type="standard_car" route="N1_W" depart="1710.0" departLane="random" departSpeed="10" />
    <vehicle id="E_W_162" type="standard_car" route="E_W" depart="1710.0" departLane="random" departSpeed="10" />
    <vehicle id="N1_S1_163" type="standard_car" route="N1_S1" depart="1712.0" departLane="random" departSpeed="10" />
    <vehicle id="S1_N1_164" type="standard_car" route="S1_N1" depart="1715.0" departLane="random" departSpeed="10" />
    <vehicle id="W_S1_165" type="standard_car" route="W_S1" depart="1716.0" departLane="random" departSpeed="10" />
    <vehicle id="E_N2_166" type="standard_car" route="E_N2" depart="1718.0" departLane="random" departSpeed="10" />
    <vehicle id="E_W_167" type="standard_car" route="E_W" depart="1718.0" departLane="random" departSpeed="10" />
    <vehicle id="S2_N2_168" type="standard_car" route="S2_N2" depart="1719.0" departLane="random" departSpeed="10" />
    <vehicle id="S2_N2_169" type="standard_car" route="S2_N2" depart="1721.0" departLane="random" departSpeed="10" />
    <vehicle id="W_N2_170" type="standard_car" route="W_N2" depart="1721.0" departLane="random" departSpeed="10" />
    <vehicle id="S2_N2_171" type="standard_car" route="S2_N2" depart="1722.0" departLane="random" departSpeed="10" />
    <vehicle id="W_S1_172" type="standard_car" route="W_S1" depart="1730.0" departLane="random" departSpeed="10" />
    <vehicle id="N1_W_173" type="standard_car" route="N1_W" depart="1733.0" departLane="random" departSpeed="10" />
    <vehicle id="N1_E_174" type="standard_car" route="N1_E" depart="1738.0" departLane="random" departSpeed="10" />
    <vehicle id="N1_S1_175" type="standard_car" route="N1_S1" depart="1740.0" departLane="random" departSpeed="10" />
    <vehicle id="S2_N2_176" type="standard_car" route="S2_N2" depart="1743.0" departLane="random" departSpeed="10" />
    <vehicle id="W_S2_177" type="standard_car" route="W_S2" depart="1745.0" departLane="random" departSpeed="10" />
    <vehicle id="W_N2_178" type="standard_car" route="W_N2" depart="1750.0" departLane="random" departSpeed="10" />
    <vehicle id="W_S2_179" type="standard_car" route="W_S2" depart="1754.0" departLane="random" departSpeed="10" />
    <vehicle id="E_W_180" type="standard_car" route="E_W" depart="1754.0" departLane="random" departSpeed="10" />
    <vehicle id="S1_N1_181" type="standard_car" route="S1_N1" depart="1755.0" departLane="random" departSpeed="10" />
    <vehicle id="S1_N1_182" type="standard_car" route="S1_N1" depart="1756.0" departLane="random" departSpeed="10" />
    <vehicle id="E_N1_183" type="standard_car" route="E_N1" depart="1763.0" departLane="random" departSpeed="10" />
    <vehicle id="W_S1_184" type="standard_car" route="W_S1" depart="1766.0" departLane="random" departSpeed="10" />
    <vehicle id="W_E_185" type="standard_car" route="W_E" depart="1767.0" departLane="random" departSpeed="10" />
    <vehicle id="N2_W_186" type="standard_car" route="N2_W" depart="1767.0" departLane="random" departSpeed="10" />
    <vehicle id="N1_S1_187" type="standard_car" route="N1_S1" depart="1769.0" departLane="random" departSpeed="10" />
    <vehicle id="W_E_188" type="standard_car" route="W_E" depart="1774.0" departLane="random" departSpeed="10" />
    <vehicle id="S2_W_189" type="standard_car" route="S2_W" depart="1775.0" departLane="random" departSpeed="10" />
    <vehicle id="S2_N2_190" type="standard_car" route="S2_N2" depart="1776.0" departLane="random" departSpeed="10" />
    <vehicle id="W_E_191" type="standard_car" route="W_E" depart="1778.0" departLane="random" departSpeed="10" />
    <vehicle id="E_W_192" type="standard_car" route="E_W" depart="1779.0" departLane="random" departSpeed="10" />
    <vehicle id="N2_W_193" type="standard_car" route="N2_W" depart="1782.0" departLane="random" departSpeed="10" />
    <vehicle id="S1_N1_194" type="standard_car" route="S1_N1" depart="1792.0" departLane="random" departSpeed="10" />
    <vehicle id="N1_S1_195" type="standard_car" route="N1_S1" depart="1794.0" departLane="random" departSpeed="10" />
    <vehicle id="E_W_196" type="standard_car" route="E_W" depart="1795.0" departLane="random" departSpeed="10" />
    <vehicle id="S1_N1_197" type="standard_car" route="S1_N1" depart="1796.0" departLane="random" departSpeed="10" />
    <vehicle id="E_S1_198" type="standard_car" route="E_S1" depart="1796.0" departLane="random" departSpeed="10" />
    <vehicle id="N2_W_199" type="standard_car" route="N2_W" depart="1802.0" departLane="random" departSpeed="10" />
    <vehicle id="N2_S2_200" type="standard_car" route="N2_S2" depart="1803.0" departLane="random" departSpeed="10" />
    <vehicle id="S1_N1_201" type="standard_car" route="S1_N1" depart="1806.0" departLane="random" departSpeed="10" />
    <vehicle id="S2_N2_202" type="standard_car" route="S2_N2" depart="1812.0" departLane="random" departSpeed="10" />
    <vehicle id="E_W_203" type="standard_car" route="E_W" depart="1815.0" departLane="random" departSpeed="10" />
    <vehicle id="N2_E_204" type="standard_car" route="N2_E" depart="1816.0" departLane="random" departSpeed="10" />
    <vehicle id="S2_N2_205" type="standard_car" route="S2_N2" depart="1817.0" departLane="random" departSpeed="10" />
    <vehicle id="E_N1_206" type="standard_car" route="E_N1" depart="1817.0" departLane="random" departSpeed="10" />
    <vehicle id="W_N1_207" type="standard_car" route="W_N1" depart="1817.0" departLane="random" departSpeed="10" />
    <vehicle id="S1_W_208" type="standard_car" route="S1_W" depart="1826.0" departLane="random" departSpeed="10" />
    <vehicle id="N2_S2_209" type="standard_car" route="N2_S2" depart="1833.0" departLane="random" departSpeed="10" />
    <vehicle id="E_S1_210" type="standard_car" route="E_S1" depart="1842.0" departLane="random" departSpeed="10" />
    <vehicle id="N2_E_211" type="standard_car" route="N2_E" depart="1844.0" departLane="random" departSpeed="10" />
    <vehicle id="N2_S2_212" type="standard_car" route="N2_S2" depart="1848.0" departLane="random" departSpeed="10" />
    <vehicle id="S1_N1_213" type="standard_car" route="S1_N1" depart="1848.0" departLane="random" departSpeed="10" />
    <vehicle id="N2_E_214" type="standard_car" route="N2_E" depart="1849.0" departLane="random" departSpeed="10" />
    <vehicle id="E_N1_215" type="standard_car" route="E_N1" depart="1852.0" departLane="random" departSpeed="10" />
    <vehicle id="E_W_216" type="standard_car" route="E_W" depart="1852.0" departLane="random" departSpeed="10" />
    <vehicle id="E_S1_217" type="standard_car" route="E_S1" depart="1854.0" departLane="random" departSpeed="10" />
    <vehicle id="S2_N2_218" type="standard_car" route="S2_N2" depart="1861.0" departLane="random" departSpeed="10" />
    <vehicle id="W_N2_219" type="standard_car" route="W_N2" depart="1862.0" departLane="random" departSpeed="10" />
    <vehicle id="N2_S2_220" type="standard_car" route="N2_S2" depart="1864.0" departLane="random" departSpeed="10" />
    <vehicle id="W_N1_221" type="standard_car" route="W_N1" depart="1866.0" departLane="random" departSpeed="10" />
    <vehicle id="N1_E_222" type="standard_car" route="N1_E" depart="1867.0" departLane="random" departSpeed="10" />
    <vehicle id="N2_S2_223" type="standard_car" route="N2_S2" depart="1872.0" departLane="random" departSpeed="10" />
    <vehicle id="N1_S1_224" type="standard_car" route="N1_S1" depart="1872.0" departLane="random" departSpeed="10" />
    <vehicle id="W_S1_225" type="standard_car" route="W_S1" depart="1875.0" departLane="random" departSpeed="10" />
    <vehicle id="S2_N2_226" type="standard_car" route="S2_N2" depart="1878.0" departLane="random" departSpeed="10" />
    <vehicle id="S1_W_227" type="standard_car" route="S1_W" depart="1883.0" departLane="random" departSpeed="10" />
    <vehicle id="S2_N2_228" type="standard_car" route="S2_N2" depart="1887.0" departLane="random" departSpeed="10" />
    <vehicle id="N1_S1_229" type="standard_car" route="N1_S1" depart="1888.0" departLane="random" departSpeed="10" />
    <vehicle id="S1_E_230" type="standard_car" route="S1_E" depart="1889.0" departLane="random" departSpeed="10" />
    <vehicle id="N2_E_231" type="standard_car" route="N2_E" depart="1894.0" departLane="random" departSpeed="10" />
    <vehicle id="N2_S2_232" type="standard_car" route="N2_S2" depart="1894.0" departLane="random" departSpeed="10" />
    <vehicle id="S2_N2_233" type="standard_car" route="S2_N2" depart="1900.0" departLane="random" departSpeed="10" />
    <vehicle id="W_N1_234" type="standard_car" route="W_N1" depart="1907.0" departLane="random" departSpeed="10" />
    <vehicle id="N2_W_235" type="standard_car" route="N2_W" depart="1907.0" departLane="random" departSpeed="10" />
    <vehicle id="S2_N2_236" type="standard_car" route="S2_N2" depart="1908.0" departLane="random" departSpeed="10" />
    <vehicle id="W_N2_237" type="standard_car" route="W_N2" depart="1911.0" departLane="random" departSpeed="10" />
    <vehicle id="W_E_238" type="standard_car" route="W_E" depart="1914.0" departLane="random" departSpeed="10" />
    <vehicle id="N2_W_239" type="standard_car" route="N2_W" depart="1921.0" departLane="random" departSpeed="10" />
    <vehicle id="W_N2_240" type="standard_car" route="W_N2" depart="1927.0" departLane="random" departSpeed="10" />